<?xml version="1.0" encoding="UTF-8"?>

<!-- generated on 2024-04-08 14:42:27.513057 by randomTrips.py v1_19_0+0000-baa66a0f364
<configuration>
    <net-file value="Sumo\osm.net.xml.gz"/>
    <output-trip-file value="Sumo\osm.passenger.trips.xml"/>
    <route-file value="Sumo\osm.passenger.rou.xml"/>
    <prefix value="veh"/>
    <trip-attributes value="departLane=&quot;best&quot;"/>
    <fringe-start-attributes value="departSpeed=&quot;max&quot;"/>
    <vehicle-class value="passenger"/>
    <lanes value="True"/>
    <fringe-factor value="5"/>
    <allow-fringe.min-length value="1000.0"/>
    <via-edge-types value="highway.motorway,highway.motorway_link,highway.trunk_link,highway.primary_link,highway.secondary_link,highway.tertiary_link"/>
    <min-distance value="300.0"/>
    <min-distance.fringe value="10.0"/>
    <remove-loops value="True"/>
    <validate value="True"/>
    <insertion-density value="36.0"/>
</configuration>
-->

<!-- generated on 2024-04-08 14:42:27 by Eclipse SUMO duarouter Version 1.19.0
<configuration xmlns:xsi="http://www.w3.org/2001/XMLSchema-instance" xsi:noNamespaceSchemaLocation="http://sumo.dlr.de/xsd/duarouterConfiguration.xsd">

    <input>
        <net-file value="Sumo\osm.net.xml.gz"/>
        <route-files value="Sumo\osm.passenger.trips.xml"/>
    </input>

    <output>
        <output-file value="Sumo\osm.passenger.trips.xml.tmp"/>
        <alternatives-output value="NUL"/>
        <write-trips value="true"/>
    </output>

    <processing>
        <remove-loops value="true"/>
    </processing>

    <time>
        <begin value="0.0"/>
        <end value="3600.0"/>
    </time>

    <report>
        <no-warnings value="true"/>
        <ignore-errors value="true"/>
        <no-step-log value="true"/>
    </report>

</configuration>
-->

<routes xmlns:xsi="http://www.w3.org/2001/XMLSchema-instance" xsi:noNamespaceSchemaLocation="http://sumo.dlr.de/xsd/routes_file.xsd">
    <vType id="veh_passenger" vClass="passenger"/>
    <trip id="veh0" type="veh_passenger" depart="0.00" departLane="best" from="4726694#2" to="-17073048#1"/>
    <trip id="veh1" type="veh_passenger" depart="2.34" departLane="best" from="14858642#0" to="13853655#0"/>
    <trip id="veh2" type="veh_passenger" depart="4.69" departLane="best" from="510702678#1" to="4730633"/>
    <trip id="veh3" type="veh_passenger" depart="7.03" departLane="best" from="8382447#1" to="-4726711#1"/>
    <trip id="veh4" type="veh_passenger" depart="9.37" departLane="best" departSpeed="max" from="31411842" to="-231940830#2"/>
    <trip id="veh5" type="veh_passenger" depart="11.71" departLane="best" from="136174723" to="393494867"/>
    <trip id="veh6" type="veh_passenger" depart="14.06" departLane="best" from="17670100#2" to="1196782590#0"/>
    <trip id="veh7" type="veh_passenger" depart="16.40" departLane="best" from="15089551" to="40493501#4"/>
    <trip id="veh8" type="veh_passenger" depart="18.74" departLane="best" departSpeed="max" from="13643508#1" to="4441062"/>
    <trip id="veh9" type="veh_passenger" depart="21.08" departLane="best" departSpeed="max" from="625259600" to="-13853658"/>
    <trip id="veh10" type="veh_passenger" depart="23.43" departLane="best" departSpeed="max" from="625259600" to="180020059#1"/>
    <trip id="veh11" type="veh_passenger" depart="25.77" departLane="best" from="180020059#2" to="-875772621#0"/>
    <trip id="veh12" type="veh_passenger" depart="28.11" departLane="best" from="897211373#0" to="183370113#3"/>
    <trip id="veh13" type="veh_passenger" depart="30.45" departLane="best" from="745660413#0" to="4690591#0"/>
    <trip id="veh14" type="veh_passenger" depart="32.80" departLane="best" departSpeed="max" from="625259600" to="510492456"/>
    <trip id="veh15" type="veh_passenger" depart="35.14" departLane="best" from="39642340#2" to="856297346"/>
    <trip id="veh16" type="veh_passenger" depart="37.48" departLane="best" from="231483314" to="410939625"/>
    <trip id="veh17" type="veh_passenger" depart="39.82" departLane="best" from="65583365#0" to="4726681#3"/>
    <trip id="veh19" type="veh_passenger" depart="44.51" departLane="best" from="4730647#2" to="-31445160#0"/>
    <trip id="veh20" type="veh_passenger" depart="46.85" departLane="best" departSpeed="max" from="13643508#1" to="155433041"/>
    <trip id="veh21" type="veh_passenger" depart="49.19" departLane="best" departSpeed="max" from="-4726710#1" to="13853661#0"/>
    <trip id="veh22" type="veh_passenger" depart="51.54" departLane="best" from="-524150333#1" to="150276013#0"/>
    <trip id="veh23" type="veh_passenger" depart="53.88" departLane="best" from="220137286#0" to="13430690#0"/>
    <trip id="veh24" type="veh_passenger" depart="56.22" departLane="best" from="14118784#1" to="856293281"/>
    <trip id="veh25" type="veh_passenger" depart="58.56" departLane="best" from="4726710#0" to="4726679#1"/>
    <trip id="veh26" type="veh_passenger" depart="60.91" departLane="best" from="1091652283" to="510492456"/>
    <trip id="veh27" type="veh_passenger" depart="63.25" departLane="best" from="1053478470" to="265113917"/>
    <trip id="veh28" type="veh_passenger" depart="65.59" departLane="best" departSpeed="max" from="963479927#0" to="4726711#1"/>
    <trip id="veh29" type="veh_passenger" depart="67.93" departLane="best" from="40493501#0" to="4730637#1"/>
    <trip id="veh30" type="veh_passenger" depart="70.28" departLane="best" departSpeed="max" from="13654453" to="236306864#0"/>
    <trip id="veh32" type="veh_passenger" depart="74.96" departLane="best" from="1198625656" to="856293283"/>
    <trip id="veh33" type="veh_passenger" depart="77.30" departLane="best" from="8152056" to="180022161"/>
    <trip id="veh34" type="veh_passenger" depart="79.65" departLane="best" from="4726717" to="30239233#0"/>
    <trip id="veh35" type="veh_passenger" depart="81.99" departLane="best" departSpeed="max" from="839709051" to="606127853"/>
    <trip id="veh36" type="veh_passenger" depart="84.33" departLane="best" from="40493502" to="150275991#0"/>
    <trip id="veh37" type="veh_passenger" depart="86.67" departLane="best" from="4422176" to="8384893#0"/>
    <trip id="veh38" type="veh_passenger" depart="89.02" departLane="best" from="239889169" to="13547697#0"/>
    <trip id="veh39" type="veh_passenger" depart="91.36" departLane="best" departSpeed="max" from="963479927#0" to="393494867"/>
    <trip id="veh40" type="veh_passenger" depart="93.70" departLane="best" from="47895849#0" to="-31445160#0"/>
    <trip id="veh41" type="veh_passenger" depart="96.05" departLane="best" from="-524150342" to="4726694#0"/>
    <trip id="veh42" type="veh_passenger" depart="98.39" departLane="best" departSpeed="max" from="625259600" to="31427257#4"/>
    <trip id="veh43" type="veh_passenger" depart="100.73" departLane="best" departSpeed="max" from="963479927#0" to="65583364"/>
    <trip id="veh44" type="veh_passenger" depart="103.07" departLane="best" departSpeed="max" from="963479927#0" to="781742860#1"/>
    <trip id="veh45" type="veh_passenger" depart="105.42" departLane="best" from="14118784#0" to="510481270"/>
    <trip id="veh46" type="veh_passenger" depart="107.76" departLane="best" from="4730631#0" to="40493386"/>
    <trip id="veh47" type="veh_passenger" depart="110.10" departLane="best" from="14118784#1" to="4726711#1"/>
    <trip id="veh48" type="veh_passenger" depart="112.44" departLane="best" from="-524150347#1" to="31448934#0"/>
    <trip id="veh49" type="veh_passenger" depart="114.79" departLane="best" from="8152056" to="150275991#0"/>
    <trip id="veh50" type="veh_passenger" depart="117.13" departLane="best" departSpeed="max" from="34065519" to="1091652430"/>
    <trip id="veh51" type="veh_passenger" depart="119.47" departLane="best" departSpeed="max" from="839709051" to="8152036#0"/>
    <trip id="veh52" type="veh_passenger" depart="121.81" departLane="best" from="150275992#0" to="4726711#0"/>
    <trip id="veh53" type="veh_passenger" depart="124.16" departLane="best" from="4441063" to="-8384914"/>
    <trip id="veh54" type="veh_passenger" depart="126.50" departLane="best" from="583307357#0" to="40493501#0"/>
    <trip id="veh55" type="veh_passenger" depart="128.84" departLane="best" from="606127855" to="40487883"/>
    <trip id="veh56" type="veh_passenger" depart="131.18" departLane="best" from="-150276003#1" to="839709054"/>
    <trip id="veh57" type="veh_passenger" depart="133.53" departLane="best" from="8152060#0" to="65583365#1"/>
    <trip id="veh58" type="veh_passenger" depart="135.87" departLane="best" from="150276011" to="-31519076"/>
    <trip id="veh59" type="veh_passenger" depart="138.21" departLane="best" from="-4730648#2" to="36801004#0"/>
    <trip id="veh60" type="veh_passenger" depart="140.55" departLane="best" from="-450925440" to="583307357#1"/>
    <trip id="veh61" type="veh_passenger" depart="142.90" departLane="best" from="583307357#2" to="-628755546#4"/>
    <trip id="veh62" type="veh_passenger" depart="145.24" departLane="best" from="31518448" to="410939625"/>
    <trip id="veh63" type="veh_passenger" depart="147.58" departLane="best" from="14118780#2" to="8152037#0"/>
    <trip id="veh64" type="veh_passenger" depart="149.92" departLane="best" departSpeed="max" from="31411842" to="13547697#0"/>
    <trip id="veh65" type="veh_passenger" depart="152.27" departLane="best" from="399914534" to="510492456"/>
    <trip id="veh66" type="veh_passenger" depart="154.61" departLane="best" from="1168195444" to="180020059#2"/>
    <trip id="veh67" type="veh_passenger" depart="156.95" departLane="best" departSpeed="max" from="963479927#0" to="4726737"/>
    <trip id="veh68" type="veh_passenger" depart="159.29" departLane="best" from="31427257#2" to="396062728#0"/>
    <trip id="veh69" type="veh_passenger" depart="161.64" departLane="best" from="-628755546#4" to="13853655#1"/>
    <trip id="veh70" type="veh_passenger" depart="163.98" departLane="best" from="180020059#0" to="4441061"/>
    <trip id="veh71" type="veh_passenger" depart="166.32" departLane="best" departSpeed="max" from="13654453" to="13547697#0"/>
    <trip id="veh72" type="veh_passenger" depart="168.66" departLane="best" departSpeed="max" from="-4726710#1" to="4726706#0"/>
    <trip id="veh73" type="veh_passenger" depart="171.01" departLane="best" departSpeed="max" from="13654453" to="8384905"/>
    <trip id="veh74" type="veh_passenger" depart="173.35" departLane="best" from="781742860#1" to="-36786445#2"/>
    <trip id="veh75" type="veh_passenger" depart="175.69" departLane="best" departSpeed="max" from="13654453" to="4730624"/>
    <trip id="veh76" type="veh_passenger" depart="178.04" departLane="best" from="1238600634#0" to="-628757206#2"/>
    <trip id="veh77" type="veh_passenger" depart="180.38" departLane="best" from="31512978#1" to="610739513#1"/>
    <trip id="veh78" type="veh_passenger" depart="182.72" departLane="best" departSpeed="max" from="625259600" to="1156329248"/>
    <trip id="veh79" type="veh_passenger" depart="185.06" departLane="best" departSpeed="max" from="31411842" to="33301531"/>
    <trip id="veh80" type="veh_passenger" depart="187.41" departLane="best" from="510481273#0" to="4730631#1"/>
    <trip id="veh81" type="veh_passenger" depart="189.75" departLane="best" departSpeed="max" from="963479927#0" to="-47895849#2"/>
    <trip id="veh83" type="veh_passenger" depart="194.43" departLane="best" departSpeed="max" from="1156337042" to="31449245"/>
    <trip id="veh84" type="veh_passenger" depart="196.78" departLane="best" departSpeed="max" from="31411842" to="150276013#0"/>
    <trip id="veh85" type="veh_passenger" depart="199.12" departLane="best" from="13853655#1" to="839709054"/>
    <trip id="veh86" type="veh_passenger" depart="201.46" departLane="best" from="31427257#3" to="781742860#1"/>
    <trip id="veh87" type="veh_passenger" depart="203.80" departLane="best" from="40493385#0" to="-31519076"/>
    <trip id="veh88" type="veh_passenger" depart="206.15" departLane="best" from="E1" to="687383599#0"/>
    <trip id="veh89" type="veh_passenger" depart="208.49" departLane="best" from="-327412184" to="13547697#0"/>
    <trip id="veh90" type="veh_passenger" depart="210.83" departLane="best" from="244422544" to="-31519076"/>
    <trip id="veh91" type="veh_passenger" depart="213.17" departLane="best" from="231483314" to="897211373#0"/>
    <trip id="veh92" type="veh_passenger" depart="215.52" departLane="best" from="14118784#0" to="610739513#1"/>
    <trip id="veh93" type="veh_passenger" depart="217.86" departLane="best" from="31445160#1" to="31427257#4"/>
    <trip id="veh94" type="veh_passenger" depart="220.20" departLane="best" from="897211373#0" to="96016135"/>
    <trip id="veh95" type="veh_passenger" depart="222.54" departLane="best" from="-40493501#2" to="606502608"/>
    <trip id="veh96" type="veh_passenger" depart="224.89" departLane="best" departSpeed="max" from="-96016135" to="16233735#0"/>
    <trip id="veh97" type="veh_passenger" depart="227.23" departLane="best" from="96016144" to="4441057#1"/>
    <trip id="veh98" type="veh_passenger" depart="229.57" departLane="best" from="399914535" to="5450860#1"/>
    <trip id="veh99" type="veh_passenger" depart="231.91" departLane="best" from="-36786445#2" to="4441059#1"/>
    <trip id="veh100" type="veh_passenger" depart="234.26" departLane="best" from="36786444#0" to="7682864#1"/>
    <trip id="veh101" type="veh_passenger" depart="236.60" departLane="best" departSpeed="max" from="-96016135" to="856293285#1"/>
    <trip id="veh102" type="veh_passenger" depart="238.94" departLane="best" from="-4726711#0" to="111691945"/>
    <trip id="veh103" type="veh_passenger" depart="241.28" departLane="best" from="4441059#1" to="4730633"/>
    <trip id="veh104" type="veh_passenger" depart="243.63" departLane="best" departSpeed="max" from="13654453" to="-524150347#1"/>
    <trip id="veh105" type="veh_passenger" depart="245.97" departLane="best" from="8382447#0" to="150276011"/>
    <trip id="veh107" type="veh_passenger" depart="250.65" departLane="best" from="31520175" to="4441059#1"/>
    <trip id="veh108" type="veh_passenger" depart="253.00" departLane="best" from="1188284582#2" to="47895849#2"/>
    <trip id="veh109" type="veh_passenger" depart="255.34" departLane="best" departSpeed="max" from="13654453" to="30239233#0"/>
    <trip id="veh110" type="veh_passenger" depart="257.68" departLane="best" from="4730619" to="524150342"/>
    <trip id="veh111" type="veh_passenger" depart="260.02" departLane="best" from="15089643" to="567036033"/>
    <trip id="veh112" type="veh_passenger" depart="262.37" departLane="best" departSpeed="max" from="-4726710#1" to="31518959"/>
    <trip id="veh113" type="veh_passenger" depart="264.71" departLane="best" from="E1" to="96016144"/>
    <trip id="veh114" type="veh_passenger" depart="267.05" departLane="best" departSpeed="max" from="-4726710#1" to="13547697#0"/>
    <trip id="veh115" type="veh_passenger" depart="269.40" departLane="best" from="14118784#0" to="839709054"/>
    <trip id="veh116" type="veh_passenger" depart="271.74" departLane="best" from="8152060#1" to="8152056"/>
    <trip id="veh117" type="veh_passenger" depart="274.08" departLane="best" from="19846527#1" to="-1024105863"/>
    <trip id="veh118" type="veh_passenger" depart="276.42" departLane="best" from="687383599#0" to="4730649"/>
    <trip id="veh119" type="veh_passenger" depart="278.77" departLane="best" from="450925440" to="897325985#1"/>
    <trip id="veh120" type="veh_passenger" depart="281.11" departLane="best" from="4726712" to="-13853658"/>
    <trip id="veh121" type="veh_passenger" depart="283.45" departLane="best" from="628755547#0" to="524150342"/>
    <trip id="veh122" type="veh_passenger" depart="285.79" departLane="best" from="4726785#1" to="856293281"/>
    <trip id="veh123" type="veh_passenger" depart="288.14" departLane="best" from="-781742860#4" to="-524150342"/>
    <trip id="veh124" type="veh_passenger" depart="290.48" departLane="best" from="-524150342" to="414404581"/>
    <trip id="veh125" type="veh_passenger" depart="292.82" departLane="best" from="14858640" to="4690638"/>
    <trip id="veh126" type="veh_passenger" depart="295.16" departLane="best" from="897211373#0" to="231940830#0"/>
    <trip id="veh127" type="veh_passenger" depart="297.51" departLane="best" from="4726685#0" to="31412878"/>
    <trip id="veh128" type="veh_passenger" depart="299.85" departLane="best" from="39642340#2" to="8384905"/>
    <trip id="veh129" type="veh_passenger" depart="302.19" departLane="best" from="745660413#0" to="-4730648#2"/>
    <trip id="veh130" type="veh_passenger" depart="304.53" departLane="best" departSpeed="max" from="31411842" to="150276011"/>
    <trip id="veh131" type="veh_passenger" depart="306.88" departLane="best" from="-1106583870" to="606127853"/>
    <trip id="veh132" type="veh_passenger" depart="309.22" departLane="best" from="4726685#1" to="150275991#0"/>
    <trip id="veh133" type="veh_passenger" depart="311.56" departLane="best" from="524150338#0" to="410939625"/>
    <trip id="veh134" type="veh_passenger" depart="313.90" departLane="best" departSpeed="max" from="-4726710#1" to="8152060#1"/>
    <trip id="veh135" type="veh_passenger" depart="316.25" departLane="best" from="-8384914" to="40493502"/>
    <trip id="veh136" type="veh_passenger" depart="318.59" departLane="best" from="687383599#0" to="4441059#1"/>
    <trip id="veh137" type="veh_passenger" depart="320.93" departLane="best" from="-900443644#2" to="-628755544#4"/>
    <trip id="veh138" type="veh_passenger" depart="323.27" departLane="best" departSpeed="max" from="625259600" to="781742860#1"/>
    <trip id="veh139" type="veh_passenger" depart="325.62" departLane="best" from="8384902" to="13430690#0"/>
    <trip id="veh140" type="veh_passenger" depart="327.96" departLane="best" from="13853655#1" to="-510702678#1"/>
    <trip id="veh141" type="veh_passenger" depart="330.30" departLane="best" from="265117578" to="4726684"/>
    <trip id="veh142" type="veh_passenger" depart="332.64" departLane="best" from="8152033#0" to="875773546"/>
    <trip id="veh143" type="veh_passenger" depart="334.99" departLane="best" from="627916936#1" to="8152060#0"/>
    <trip id="veh144" type="veh_passenger" depart="337.33" departLane="best" from="17073048#0" to="839709054"/>
    <trip id="veh145" type="veh_passenger" depart="339.67" departLane="best" departSpeed="max" from="625259600" to="781742860#3"/>
    <trip id="veh146" type="veh_passenger" depart="342.01" departLane="best" from="627916936#1" to="150275992#0"/>
    <trip id="veh147" type="veh_passenger" depart="344.36" departLane="best" from="610739513#1" to="-524150333#1"/>
    <trip id="veh148" type="veh_passenger" depart="346.70" departLane="best" from="8152037#1" to="772942669"/>
    <trip id="veh149" type="veh_passenger" depart="349.04" departLane="best" departSpeed="max" from="13643508#1" to="628755547#0"/>
    <trip id="veh150" type="veh_passenger" depart="351.38" departLane="best" from="31448937#0" to="17670100#2"/>
    <trip id="veh151" type="veh_passenger" depart="353.73" departLane="best" departSpeed="max" from="625259600" to="13853655#2"/>
    <trip id="veh152" type="veh_passenger" depart="356.07" departLane="best" from="-17073048#1" to="1168195444"/>
    <trip id="veh153" type="veh_passenger" depart="358.41" departLane="best" from="17073048#0" to="781742860#4"/>
    <trip id="veh154" type="veh_passenger" depart="360.76" departLane="best" from="96016135" to="150276013#0"/>
    <trip id="veh155" type="veh_passenger" depart="363.10" departLane="best" from="4726706#0" to="307372337#0"/>
    <trip id="veh156" type="veh_passenger" depart="365.44" departLane="best" departSpeed="max" from="963479927#0" to="40493386"/>
    <trip id="veh157" type="veh_passenger" depart="367.78" departLane="best" from="856293284" to="-17073048#1"/>
    <trip id="veh158" type="veh_passenger" depart="370.13" departLane="best" departSpeed="max" from="963479927#0" to="1091652430"/>
    <trip id="veh159" type="veh_passenger" depart="372.47" departLane="best" from="897325985#1" to="150275991#1"/>
    <trip id="veh160" type="veh_passenger" depart="374.81" departLane="best" from="-524150342" to="31448934#0"/>
    <trip id="veh161" type="veh_passenger" depart="377.15" departLane="best" from="510481270" to="180022161"/>
    <trip id="veh162" type="veh_passenger" depart="379.50" departLane="best" from="4441063" to="393494868"/>
    <trip id="veh163" type="veh_passenger" depart="381.84" departLane="best" from="231945290#0" to="4422177"/>
    <trip id="veh164" type="veh_passenger" depart="384.18" departLane="best" from="13853659#0" to="-47446166"/>
    <trip id="veh165" type="veh_passenger" depart="386.52" departLane="best" from="1024105863" to="839709054"/>
    <trip id="veh166" type="veh_passenger" depart="388.87" departLane="best" from="524150342" to="4730627"/>
    <trip id="veh167" type="veh_passenger" depart="391.21" departLane="best" from="183370113#3" to="36786445#0"/>
    <trip id="veh168" type="veh_passenger" depart="393.55" departLane="best" from="4726785#1" to="183370113#0.12"/>
    <trip id="veh169" type="veh_passenger" depart="395.89" departLane="best" from="150276015" to="745660413#0"/>
    <trip id="veh170" type="veh_passenger" depart="398.24" departLane="best" from="47895849#0" to="17073048#0"/>
    <trip id="veh171" type="veh_passenger" depart="400.58" departLane="best" from="150276013#0" to="4730616#1"/>
    <trip id="veh172" type="veh_passenger" depart="402.92" departLane="best" from="-70724345" to="31427257#3"/>
    <trip id="veh173" type="veh_passenger" depart="405.26" departLane="best" from="856293284" to="4730634"/>
    <trip id="veh174" type="veh_passenger" depart="407.61" departLane="best" from="8384907" to="4726681#1"/>
    <trip id="veh175" type="veh_passenger" depart="409.95" departLane="best" from="150275991#1" to="4441057#1"/>
    <trip id="veh176" type="veh_passenger" depart="412.29" departLane="best" from="4726717" to="327412184"/>
    <trip id="veh177" type="veh_passenger" depart="414.63" departLane="best" from="31427257#3" to="13547697#0"/>
    <trip id="veh178" type="veh_passenger" depart="416.98" departLane="best" from="31512978#1" to="8384893#1"/>
    <trip id="veh179" type="veh_passenger" depart="419.32" departLane="best" departSpeed="max" from="625259600" to="897325985#1"/>
    <trip id="veh180" type="veh_passenger" depart="421.66" departLane="best" from="-4730648#1" to="395800497#0"/>
    <trip id="veh181" type="veh_passenger" depart="424.00" departLane="best" from="4726684" to="183370113#3"/>
    <trip id="veh182" type="veh_passenger" depart="426.35" departLane="best" from="628757206#0" to="567036033"/>
    <trip id="veh183" type="veh_passenger" depart="428.69" departLane="best" from="1168195444" to="552794577"/>
    <trip id="veh184" type="veh_passenger" depart="431.03" departLane="best" departSpeed="max" from="13654453" to="36786445#0"/>
    <trip id="veh185" type="veh_passenger" depart="433.37" departLane="best" from="759157551" to="36786445#0"/>
    <trip id="veh186" type="veh_passenger" depart="435.72" departLane="best" from="29023713" to="4726694#2"/>
    <trip id="veh187" type="veh_passenger" depart="438.06" departLane="best" departSpeed="max" from="1168195444" to="4730647#1"/>
    <trip id="veh188" type="veh_passenger" depart="440.40" departLane="best" departSpeed="max" from="34065519" to="40493501#4"/>
    <trip id="veh189" type="veh_passenger" depart="442.74" departLane="best" from="4726717" to="-1238600634#0"/>
    <trip id="veh190" type="veh_passenger" depart="445.09" departLane="best" from="31449010#0" to="606127853"/>
    <trip id="veh191" type="veh_passenger" depart="447.43" departLane="best" from="-524150342" to="31427257#4"/>
    <trip id="veh192" type="veh_passenger" depart="449.77" departLane="best" from="1091652430" to="856293285#1"/>
    <trip id="veh193" type="veh_passenger" depart="452.12" departLane="best" from="36801004#1" to="-31519076"/>
    <trip id="veh194" type="veh_passenger" depart="454.46" departLane="best" from="13853655#1" to="745660413#0"/>
    <trip id="veh195" type="veh_passenger" depart="456.80" departLane="best" from="31448934#0" to="625259599"/>
    <trip id="veh196" type="veh_passenger" depart="459.14" departLane="best" from="4730616#2" to="897325985#1"/>
    <trip id="veh197" type="veh_passenger" depart="461.49" departLane="best" from="4441059#1" to="856293285#0"/>
    <trip id="veh198" type="veh_passenger" depart="463.83" departLane="best" from="8382447#1" to="4726681#0"/>
    <trip id="veh199" type="veh_passenger" depart="466.17" departLane="best" from="47461591#0" to="393494867"/>
    <trip id="veh200" type="veh_passenger" depart="468.51" departLane="best" from="65583365#0" to="40598677"/>
    <trip id="veh201" type="veh_passenger" depart="470.86" departLane="best" from="8384893#1" to="5450858#1"/>
    <trip id="veh202" type="veh_passenger" depart="473.20" departLane="best" from="31518448" to="14858643#0"/>
    <trip id="veh203" type="veh_passenger" depart="475.54" departLane="best" from="4726681#1" to="150276003#1"/>
    <trip id="veh204" type="veh_passenger" depart="477.88" departLane="best" departSpeed="max" from="-4726710#1" to="15089643"/>
    <trip id="veh205" type="veh_passenger" depart="480.23" departLane="best" from="14858640" to="181218814#0"/>
    <trip id="veh206" type="veh_passenger" depart="482.57" departLane="best" from="399914534" to="-781742860#1"/>
    <trip id="veh207" type="veh_passenger" depart="484.91" departLane="best" departSpeed="max" from="13654453" to="4730647#0"/>
    <trip id="veh208" type="veh_passenger" depart="487.25" departLane="best" from="4730648#0" to="-34065519"/>
    <trip id="veh209" type="veh_passenger" depart="489.60" departLane="best" from="8152038" to="40493501#3"/>
    <trip id="veh211" type="veh_passenger" depart="494.28" departLane="best" departSpeed="max" from="31411842" to="8384905"/>
    <trip id="veh212" type="veh_passenger" depart="496.62" departLane="best" from="4422176" to="4730647#1"/>
    <trip id="veh213" type="veh_passenger" depart="498.97" departLane="best" from="7682875" to="583307354"/>
    <trip id="veh214" type="veh_passenger" depart="501.31" departLane="best" from="231483339#0" to="-1238600634#0"/>
    <trip id="veh215" type="veh_passenger" depart="503.65" departLane="best" from="181218814#2" to="567036034"/>
    <trip id="veh216" type="veh_passenger" depart="505.99" departLane="best" from="7682864#2" to="856293285#1"/>
    <trip id="veh217" type="veh_passenger" depart="508.34" departLane="best" from="31520175" to="5450860#1"/>
    <trip id="veh218" type="veh_passenger" depart="510.68" departLane="best" from="400062408" to="4690591#0"/>
    <trip id="veh219" type="veh_passenger" depart="513.02" departLane="best" from="31427257#0" to="-17670100#2"/>
    <trip id="veh220" type="veh_passenger" depart="515.36" departLane="best" from="17670100#2" to="4730636"/>
    <trip id="veh221" type="veh_passenger" depart="517.71" departLane="best" from="265113917" to="1053478471"/>
    <trip id="veh222" type="veh_passenger" depart="520.05" departLane="best" from="31449018" to="-628755544#4"/>
    <trip id="veh223" type="veh_passenger" depart="522.39" departLane="best" from="4726679#1" to="-17670100#1"/>
    <trip id="veh224" type="veh_passenger" depart="524.73" departLane="best" from="231945290#5" to="4392761#2"/>
    <trip id="veh225" type="veh_passenger" depart="527.08" departLane="best" from="-17670100#2" to="4726712"/>
    <trip id="veh226" type="veh_passenger" depart="529.42" departLane="best" from="-832487280" to="31520175"/>
    <trip id="veh227" type="veh_passenger" depart="531.76" departLane="best" from="-34065519" to="265113917"/>
    <trip id="veh228" type="veh_passenger" depart="534.11" departLane="best" from="1198625656" to="183370113#0.12"/>
    <trip id="veh229" type="veh_passenger" depart="536.45" departLane="best" from="583307354" to="265113917"/>
    <trip id="veh230" type="veh_passenger" depart="538.79" departLane="best" from="31449010#0" to="65583365#1"/>
    <trip id="veh232" type="veh_passenger" depart="543.48" departLane="best" from="-150276003#1" to="40493501#0"/>
    <trip id="veh233" type="veh_passenger" depart="545.82" departLane="best" from="E1" to="231483313"/>
    <trip id="veh234" type="veh_passenger" depart="548.16" departLane="best" from="4726711#1" to="583307354"/>
    <trip id="veh235" type="veh_passenger" depart="550.50" departLane="best" from="875773546" to="1196782590#0"/>
    <trip id="veh236" type="veh_passenger" depart="552.85" departLane="best" from="-150276003#1" to="-8384914"/>
    <trip id="veh237" type="veh_passenger" depart="555.19" departLane="best" from="-628757206#2" to="4730627"/>
    <trip id="veh238" type="veh_passenger" depart="557.53" departLane="best" from="40598677" to="13547697#0"/>
    <trip id="veh239" type="veh_passenger" depart="559.87" departLane="best" from="4730644" to="583307354"/>
    <trip id="veh240" type="veh_passenger" depart="562.22" departLane="best" from="107118812" to="4726679#0"/>
    <trip id="veh241" type="veh_passenger" depart="564.56" departLane="best" from="5450858#1" to="-524150342"/>
    <trip id="veh242" type="veh_passenger" depart="566.90" departLane="best" from="628757206#0" to="856293285#1"/>
    <trip id="veh243" type="veh_passenger" depart="569.24" departLane="best" from="-524150342" to="-17670100#1"/>
    <trip id="veh244" type="veh_passenger" depart="571.59" departLane="best" from="150276013#1" to="4730634"/>
    <trip id="veh245" type="veh_passenger" depart="573.93" departLane="best" from="4730654" to="231483314"/>
    <trip id="veh246" type="veh_passenger" depart="576.27" departLane="best" from="4730637#0" to="4726694#0"/>