<?xml version="1.0" encoding="UTF-8"?>

<!-- generated on 2024-02-19 16:33:35 by Eclipse SUMO netedit Version 1.19.0-->

<additional xmlns:xsi="http://www.w3.org/2001/XMLSchema-instance" xsi:noNamespaceSchemaLocation="http://sumo.dlr.de/xsd/additional_file.xsd">
    <!-- StoppingPlaces -->
    <busStop id="-206138851" name="Louise - Louiza" lane="-306595656#0_0" startPos="0.00" endPos="25.00" friendlyPos="true">
        <access lane="181218814#0_0" pos="0.00" length="25.70" friendlyPos="1"/>
        <access lane="29023713_0" pos="254.44" length="28.39" friendlyPos="1"/>
        <access lane="510481270_0" pos="23.52" length="32.51" friendlyPos="1"/>
        <access lane="583307354_0" pos="0.00" length="23.60" friendlyPos="1"/>
        <access lane="583307358_0" pos="6.66" length="23.54" friendlyPos="1"/>
    </busStop>
    <busStop id="-3115601189" name="Louise - Louiza" lane="-584910438#0_0" startPos="0.00" endPos="25.00" friendlyPos="true">
        <access lane="1062952936_0" pos="49.31" length="24.68" friendlyPos="1"/>
        <access lane="395800497#0_0" pos="19.18" length="34.19" friendlyPos="1"/>
        <access lane="4690638_0" pos="0.00" length="21.59" friendlyPos="1"/>
        <access lane="510481270_0" pos="0.00" length="38.66" friendlyPos="1"/>
    </busStop>
    <busStop id="-3121274427" name="Flagey" lane="-307075094#1_0" startPos="0.00" endPos="25.00" friendlyPos="true">
        <access lane="-29062554#0_0" pos="0.42" length="5.39" friendlyPos="1"/>
        <access lane="1156337042_0" pos="7.33" length="12.47" friendlyPos="1"/>
        <access lane="29063062_0" pos="52.54" length="0.59" friendlyPos="1"/>
    </busStop>
    <busStop id="-3121275068" name="Flagey" lane="-307075102_0" startPos="32.26" endPos="57.26" friendlyPos="true">
        <access lane="-29062554#0_0" pos="47.58" length="1.21" friendlyPos="1"/>
        <access lane="1168195444_0" pos="85.76" length="31.75" friendlyPos="1"/>
        <access lane="29063062_0" pos="5.95" length="6.01" friendlyPos="1"/>
    </busStop>
    <busStop id="-4133470846" name="Levure - Gist" lane="307014275#1_0" startPos="3.76" endPos="28.76" friendlyPos="true">
        <access lane="-70724345_0" pos="16.26" length="4.64" friendlyPos="1"/>
        <access lane="265113917_0" pos="0.00" length="44.60" friendlyPos="1"/>
        <access lane="8382421#0_0" pos="62.93" length="32.05" friendlyPos="1"/>
        <access lane="875773546_0" pos="55.76" length="0.16" friendlyPos="1"/>
    </busStop>
    <busStop id="-4430400436" name="Dautzenberg" lane="-307075084#1_0" startPos="78.95" endPos="103.95" friendlyPos="true">
        <access lane="-781742860#0_0" pos="42.66" length="4.58" friendlyPos="1"/>
        <access lane="-781742860#1_0" pos="37.09" length="81.66" friendlyPos="1"/>
        <access lane="40493386_0" pos="75.24" length="0.22" friendlyPos="1"/>
        <access lane="781742860#1_0" pos="0.00" length="81.49" friendlyPos="1"/>
        <access lane="8384926#0_0" pos="65.52" length="71.96" friendlyPos="1"/>
    </busStop>
    <busStop id="-4430400437" name="Dautzenberg" lane="-307075083#1_0" startPos="85.77" endPos="110.77" friendlyPos="true">
        <access lane="-31445160#1_0" pos="15.34" length="32.91" friendlyPos="1"/>
        <access lane="-510702678#1_0" pos="0.00" length="55.76" friendlyPos="1"/>
        <access lane="-781742860#0_0" pos="98.27" length="0.19" friendlyPos="1"/>
        <access lane="31445160#1_0" pos="96.92" length="37.71" friendlyPos="1"/>
        <access lane="40493386_0" pos="19.64" length="4.61" friendlyPos="1"/>
    </busStop>
    <busStop id="142059659" lane="14858642#1_0" startPos="43.15" endPos="58.15" friendlyPos="true"/>
    <busStop id="144233079" name="Stéphanie - Stefania" lane="14626326#3_0" startPos="12.55" endPos="37.55" friendlyPos="true" lines="93 8">
        <access lane="180156396#0_0" pos="34.69" length="11.05" friendlyPos="1"/>
        <access lane="180156396#1_0" pos="0.00" length="30.23" friendlyPos="1"/>
        <access lane="21766158#0_0" pos="23.39" length="14.34" friendlyPos="1"/>
        <access lane="39642340#2_0" pos="0.00" length="53.09" friendlyPos="1"/>
        <access lane="610739513#1_0" pos="5.75" length="49.42" friendlyPos="1"/>
    </busStop>
    <busStop id="144233115" name="Defacqz" lane="307372408#7_0" startPos="34.95" endPos="59.95" friendlyPos="true" lines="93 8">
        <access lane="231945290#0_0" pos="42.27" length="49.69" friendlyPos="1"/>
        <access lane="231945290#2_0" pos="0.00" length="48.08" friendlyPos="1"/>
        <access lane="239889169_0" pos="103.12" length="56.61" friendlyPos="1"/>
        <access lane="37535329#1_0" pos="14.49" length="80.17" friendlyPos="1"/>
        <access lane="628782529#0_0" pos="64.05" length="13.81" friendlyPos="1"/>
    </busStop>
    <busStop id="1457879038" lane="29062554#1_0" startPos="0.00" endPos="5.59" friendlyPos="true"/>
    <busStop id="203289219" lane="29063062_0" startPos="0.00" endPos="15.00" friendlyPos="true"/>
    <busStop id="206138851" name="Louise - Louiza" lane="584910437#1_0" startPos="9.93" endPos="34.93" friendlyPos="true" lines="97 93 8 92">
        <access lane="181218814#0_0" pos="0.00" length="25.70" friendlyPos="1"/>
        <access lane="29023713_0" pos="254.44" length="28.39" friendlyPos="1"/>
        <access lane="510481270_0" pos="23.52" length="32.51" friendlyPos="1"/>
        <access lane="583307354_0" pos="0.00" length="23.60" friendlyPos="1"/>
        <access lane="583307358_0" pos="6.66" length="23.54" friendlyPos="1"/>
    </busStop>
    <busStop id="3115601189" name="Louise - Louiza" lane="306595655#1_0" startPos="10.01" endPos="35.01" friendlyPos="true" lines="93 92 97 8">
        <access lane="1062952936_0" pos="49.31" length="24.68" friendlyPos="1"/>
        <access lane="395800497#0_0" pos="19.18" length="34.19" friendlyPos="1"/>
        <access lane="4690638_0" pos="0.00" length="21.59" friendlyPos="1"/>
        <access lane="510481270_0" pos="0.00" length="38.66" friendlyPos="1"/>
    </busStop>
    <busStop id="3120543593" name="Levure - Gist" lane="307014276#1_0" startPos="49.05" endPos="74.05" friendlyPos="true" lines="81">
        <access lane="-875772621#0_0" pos="61.52" length="0.16" friendlyPos="1"/>
        <access lane="150276003#1_0" pos="0.00" length="116.94" friendlyPos="1"/>
        <access lane="8382440#0_0" pos="184.59" length="4.64" friendlyPos="1"/>
        <access lane="8384886#1_0" pos="41.50" length="80.48" friendlyPos="1"/>
    </busStop>
    <busStop id="3120545161" lane="23226843.29_0" startPos="42.00" endPos="57.00" friendlyPos="true" lines="64"/>
    <busStop id="3121274427" name="Flagey" lane="307075094#1_0" startPos="29.33" endPos="54.33" friendlyPos="true" lines="81">
        <access lane="-29062554#0_0" pos="0.42" length="5.39" friendlyPos="1"/>
        <access lane="1156337042_0" pos="7.33" length="12.47" friendlyPos="1"/>
        <access lane="29063062_0" pos="52.54" length="0.59" friendlyPos="1"/>
    </busStop>
    <busStop id="3121275068" name="Flagey" lane="307075102_0" startPos="0.00" endPos="25.00" friendlyPos="true">
        <access lane="-29062554#0_0" pos="47.58" length="1.21" friendlyPos="1"/>
        <access lane="1168195444_0" pos="85.76" length="31.75" friendlyPos="1"/>
        <access lane="29063062_0" pos="5.95" length="6.01" friendlyPos="1"/>
    </busStop>
    <busStop id="3121275120" lane="1168195444_0" startPos="53.36" endPos="68.36" friendlyPos="true"/>
    <busStop id="3121275124" lane="150275992#0_0" startPos="72.86" endPos="87.86" friendlyPos="true"/>
    <busStop id="3121275244" lane="1168195444_0" startPos="20.16" endPos="35.16" friendlyPos="true"/>
    <busStop id="3124859560" name="Bailli - Baljuw" lane="307372408#5_0" startPos="23.92" endPos="48.92" friendlyPos="true" lines="93 8">
        <access lane="-23912283#3_0" pos="23.94" length="67.61" friendlyPos="1"/>
        <access lane="307372337#0_0" pos="25.00" length="54.39" friendlyPos="1"/>
        <access lane="40493384#2_0" pos="28.86" length="48.54" friendlyPos="1"/>
        <access lane="628782529#5_0" pos="76.25" length="15.06" friendlyPos="1"/>
    </busStop>
    <busStop id="3132143374" name="Stéphanie - Stefania" lane="307372408#11_0" startPos="11.99" endPos="36.99" friendlyPos="true" lines="93 8">
        <access lane="180156396#0_0" pos="8.16" length="15.80" friendlyPos="1"/>
        <access lane="39642340#2_0" pos="0.00" length="13.95" friendlyPos="1"/>
        <access lane="610739513#1_0" pos="32.71" length="46.07" friendlyPos="1"/>
    </busStop>
    <busStop id="3257619435" lane="17670100#1_0" startPos="73.02" endPos="88.02" friendlyPos="true"/>
    <busStop id="3257619437" lane="17073048#0_0" startPos="2.21" endPos="17.21" friendlyPos="true"/>
    <busStop id="3257619445" lane="523773489#0_0" startPos="30.34" endPos="45.34" friendlyPos="true"/>
    <busStop id="3257619447" lane="510492454#0_0" startPos="9.87" endPos="24.87" friendlyPos="true"/>
    <busStop id="3267143286" lane="17670100#2_0" startPos="2.30" endPos="17.30" friendlyPos="true"/>
    <busStop id="3984871905" lane="31518448_0" startPos="26.69" endPos="41.69" friendlyPos="true"/>
    <busStop id="3984871931" lane="237344387_0" startPos="23.19" endPos="38.19" friendlyPos="true"/>
    <busStop id="4133470846" name="Levure - Gist" lane="307014275#1_0" startPos="43.24" endPos="68.24" friendlyPos="true" lines="81">
        <access lane="-70724345_0" pos="16.26" length="4.64" friendlyPos="1"/>
        <access lane="265113917_0" pos="0.00" length="44.60" friendlyPos="1"/>
        <access lane="8382421#0_0" pos="62.93" length="32.05" friendlyPos="1"/>
        <access lane="875773546_0" pos="55.76" length="0.16" friendlyPos="1"/>
    </busStop>
    <busStop id="4208789100" lane="36786444#0_0" startPos="8.25" endPos="23.25" friendlyPos="true"/>
    <busStop id="4214151379" lane="13853658_0" startPos="27.30" endPos="42.30" friendlyPos="true"/>
    <busStop id="4214151380" lane="1156329248_0" startPos="18.91" endPos="33.91" friendlyPos="true"/>
    <busStop id="4214151381" lane="28575360_0" startPos="0.00" endPos="15.00" friendlyPos="true"/>
    <busStop id="4214151382" lane="28575360_0" startPos="38.39" endPos="53.39" friendlyPos="true"/>
    <busStop id="4214151383" lane="40493501#4_0" startPos="0.00" endPos="15.00" friendlyPos="true"/>
    <busStop id="4214151384" lane="40493501#3_0" startPos="141.34" endPos="156.34" friendlyPos="true"/>
    <busStop id="4214176918" lane="237344387_0" startPos="3.82" endPos="18.82" friendlyPos="true"/>
    <busStop id="4243157471" lane="628757206#0_0" startPos="16.27" endPos="31.27" friendlyPos="true"/>
    <busStop id="4296774165" lane="16233735#0_0" startPos="15.30" endPos="30.30" friendlyPos="true"/>
    <busStop id="4321340838" lane="4730648#2_0" startPos="0.00" endPos="7.17" friendlyPos="true"/>
    <busStop id="4337156074" lane="150276003#1_0" startPos="2.31" endPos="17.31" friendlyPos="true"/>
    <busStop id="4337156075" lane="150276003#1_0" startPos="11.08" endPos="26.08" friendlyPos="true"/>
    <busStop id="4337156080" lane="875773546_0" startPos="48.35" endPos="63.35" friendlyPos="true"/>
    <busStop id="4430400436" name="Dautzenberg" lane="307075084#1_0" startPos="147.83" endPos="172.83" friendlyPos="true" lines="81">
        <access lane="-781742860#0_0" pos="42.66" length="4.58" friendlyPos="1"/>
        <access lane="-781742860#1_0" pos="37.09" length="81.66" friendlyPos="1"/>
        <access lane="40493386_0" pos="75.24" length="0.22" friendlyPos="1"/>
        <access lane="781742860#1_0" pos="0.00" length="81.49" friendlyPos="1"/>
        <access lane="8384926#0_0" pos="65.52" length="71.96" friendlyPos="1"/>
    </busStop>
    <busStop id="4531707398" lane="150275992#0_0" startPos="87.69" endPos="102.69" friendlyPos="true"/>
    <busStop id="488628710" name="Defacqz" lane="14626326#9_0" startPos="21.71" endPos="46.71" friendlyPos="true" lines="93 8">
        <access lane="-4730648#1_0" pos="143.10" length="62.58" friendlyPos="1"/>
        <access lane="40493384#2_0" pos="140.23" length="59.70" friendlyPos="1"/>
        <access lane="40493385#0_0" pos="3.53" length="52.78" friendlyPos="1"/>
        <access lane="419709604#2_0" pos="0.00" length="61.02" friendlyPos="1"/>
        <access lane="628782529#3_0" pos="34.29" length="9.81" friendlyPos="1"/>
    </busStop>
    <busStop id="4968533711" lane="4392761#0_0" startPos="34.67" endPos="49.67" friendlyPos="true"/>
    <busStop id="4969985579" lane="181218814#0_0" startPos="59.10" endPos="74.10" friendlyPos="true"/>
    <busStop id="4969986110" lane="1062952936_0" startPos="18.69" endPos="33.69" friendlyPos="true" lines="33"/>
    <busStop id="5375595784" lane="628755547#0_0" startPos="4.21" endPos="19.21" friendlyPos="true"/>
    <busStop id="5375595785" lane="628755547#0_0" startPos="12.46" endPos="27.46" friendlyPos="true"/>
    <busStop id="538018783" lane="155433040_0" startPos="17.51" endPos="32.51" friendlyPos="true"/>
    <busStop id="8882416106" lane="40487883_0" startPos="25.20" endPos="40.20" friendlyPos="true"/>
    <busStop id="9980574119" lane="70724347#1_0" startPos="31.42" endPos="46.42" friendlyPos="true"/>
    <poly id="1000932520" type="building.yes" color="255,230,230" fill="1" layer="-1.00" shape="2140.774107,1771.840122 2141.179357,1767.098032 2150.032599,1767.963537 2149.908364,1770.096890 2150.865291,1770.159191 2150.702746,1772.836871 2140.774107,1771.840122"/>
    <poly id="1009599803" type="building.roof" color="255,230,230" fill="1" layer="-1.00" shape="1276.701426,2690.884363 1276.218878,2689.551799 1283.345461,2687.336264 1283.764432,2688.678779 1283.566052,2688.741859 1283.229379,2689.047098 1283.017598,2689.454750 1282.959696,2689.920857 1283.064148,2690.367712 1283.119107,2690.824778 1283.005286,2691.267607 1282.737588,2691.651981 1281.640138,2692.343622 1281.016833,2692.532342 1280.393734,2692.709942 1279.097155,2692.741640 1278.691645,2692.578435 1278.373090,2692.283355 1278.087006,2691.755287 1277.839272,2691.439267 1277.484075,2691.221373 1277.084171,2691.136134 1276.984709,2690.800603 1276.701426,2690.884363"/>
    <poly id="1009673508" type="building.office" color="255,230,230" fill="1" layer="-1.00" shape="1476.001669,2942.812824 1466.124702,2934.565902 1453.176799,2924.037598 1438.897400,2941.348416 1489.566853,2983.185119 1503.787524,2966.006829 1496.206575,2959.671009 1476.001669,2942.812824"/>
    <poly id="1009673509" type="building.office" color="255,230,230" fill="1" layer="-1.00" shape="1504.281282,2908.453215 1494.389797,2900.228219 1466.124702,2934.565902 1476.001669,2942.812824 1504.281282,2908.453215"/>
    <poly id="1018242441" type="building.yes" color="255,230,230" fill="1" layer="-1.00" shape="1471.499149,1912.007148 1461.655952,1906.397135 1462.789039,1904.549371 1462.914508,1904.240240 1463.058227,1904.087170 1463.249802,1904.012848 1463.462093,1903.961154 1463.687647,1903.954199 1463.870331,1903.979821 1464.114751,1904.095569 1468.974468,1907.199759 1471.912004,1902.626784 1475.912880,1904.936485 1471.499149,1912.007148"/>
    <poly id="1018242443" type="building.garage" color="255,230,230" fill="1" layer="-1.00" shape="1390.197933,1873.498489 1388.214956,1871.014771 1389.870457,1868.342397 1393.035964,1871.259508 1390.197933,1873.498489"/>
    <poly id="1040609215" type="amenity.shelter" color="237,199,199" fill="1" layer="-1.00" shape="2136.442329,2179.916407 2136.795652,2179.478051 2137.141933,2179.039565 2134.094672,2176.613605 2133.395275,2177.479328 2136.442329,2179.916407"/>
    <poly id="1040612511" type="amenity.parking" color="184,184,179" fill="1" layer="-1.00" shape="2093.099814,2216.628806 2112.649352,2193.044089 2113.106080,2195.377347 2094.688580,2217.937533 2093.099814,2216.628806"/>
    <poly id="1044382662" type="leisure.garden" color="207,245,201" fill="1" layer="-2.00" shape="1365.440020,2407.522892 1363.824576,2408.416295 1363.049855,2409.936996 1362.921304,2411.558613 1363.167878,2412.319544 1364.039764,2413.548071 1365.396215,2414.474093 1365.875648,2414.449575 1366.109042,2414.398268 1366.575028,2413.194440 1367.326018,2412.196092 1368.511996,2411.672950 1370.050724,2411.501141 1370.261290,2411.160209 1370.162381,2410.413127 1369.971934,2409.664356 1369.576259,2408.967411 1368.663008,2408.071816 1367.504188,2407.505384 1366.935269,2407.417018 1366.266332,2407.404668 1365.440020,2407.522892"/>
    <poly id="1050379977" type="building.yes" color="255,230,230" fill="1" layer="-1.00" shape="1731.164759,2167.996903 1732.981375,2170.700143 1737.230195,2167.975824 1735.254710,2165.102790 1731.164759,2167.996903"/>
    <poly id="1052169916" type="amenity.arts_centre" color="237,199,199" fill="1" layer="-1.00" shape="1546.857145,1778.531223 1549.667902,1774.345257 1553.802856,1776.646372 1559.162382,1768.347465 1555.186467,1765.826823 1557.766074,1761.569847 1536.067248,1747.531513 1535.711893,1748.081103 1532.231229,1745.825472 1532.579335,1745.286871 1527.413952,1741.943387 1525.882737,1743.983995 1522.734959,1742.012605 1523.394520,1741.012586 1519.487551,1738.571110 1518.827991,1739.571129 1515.672960,1737.610733 1517.106349,1735.145631 1510.559509,1731.075864 1485.643225,1715.009465 1474.733680,1732.393657 1499.426816,1748.333526 1546.857145,1778.531223"/>
    <poly id="1056851237" type="amenity.parking_space" color="237,199,199" fill="1" layer="-1.00" shape="1863.172794,1965.654732 1864.181815,1964.805841 1861.148717,1961.223496 1860.139489,1962.083506 1863.172794,1965.654732"/>
    <poly id="1056901977" type="landuse.residential" color="235,235,227" fill="1" layer="-3.00" shape="1687.370709,1894.933357 1692.632289,1897.633643 1694.551164,1898.625781 1698.043641,1900.614788 1709.577207,1906.990703 1707.401785,1910.721179 1705.441337,1914.255420 1688.944054,1942.347452 1696.239458,1946.676034 1694.607044,1949.615700 1693.602699,1951.354568 1691.914158,1954.282072 1691.040896,1955.789780 1689.461489,1958.530212 1688.420495,1960.346264 1686.848545,1963.064588 1686.055220,1964.440298 1684.359645,1967.367675 1683.435446,1968.963426 1681.870337,1971.693001 1681.055064,1973.112799 1679.330297,1976.095252 1678.522685,1977.481823 1676.870194,1980.365506 1675.960701,1981.928162 1674.432251,1984.580555 1673.427919,1986.319427 1671.018973,1990.490521 1669.294011,1993.484097 1667.404861,1996.975178 1666.656475,1998.207122 1664.651115,2001.506958 1661.897784,2006.016499 1657.901986,2012.571958 1656.231067,2015.310704 1625.076091,1989.684449 1646.867285,1956.428945 1649.418139,1952.583040 1652.454608,1948.000871 1656.679333,1941.638741 1666.144356,1927.331551 1687.370709,1894.933357"/>
    <poly id="1056901978" type="building.apartments" color="255,230,230" fill="1" layer="-1.00" shape="1633.620098,1977.173243 1639.112034,1980.745352 1639.402154,1980.294670 1641.553026,1981.691521 1643.710938,1983.088503 1642.884475,1984.352374 1645.738147,1986.218290 1648.584775,1988.084076 1648.809459,1987.743416 1649.909128,1988.464538 1656.222321,1992.574663 1656.526732,1992.113124 1657.292294,1992.616720 1662.248140,1995.845232 1671.999051,1980.931570 1671.477282,1980.577088 1676.747771,1972.521362 1676.225590,1972.189119 1681.909641,1963.484786 1681.457262,1963.187204 1687.040065,1954.625604 1686.594727,1954.328152 1692.743305,1944.887177 1686.729800,1940.949408 1681.074916,1949.598660 1680.553061,1950.389868 1680.991768,1950.664950 1676.018419,1958.270122 1675.235227,1959.479174 1675.743325,1959.811157 1670.218530,1968.284857 1670.608972,1968.503429 1665.149426,1976.878233 1667.982380,1978.721531 1667.424290,1979.567685 1665.256751,1982.875641 1655.957729,1976.808150 1656.595956,1975.818876 1653.463895,1973.769829 1651.396704,1972.419015 1659.190887,1960.461251 1669.928810,1943.986361 1667.923960,1942.692312 1669.482069,1940.340793 1674.434092,1932.746343 1673.257776,1931.979304 1667.111883,1927.961244 1666.144356,1927.331551 1660.488876,1936.014184 1660.927174,1936.311503 1657.012248,1942.301176 1661.390241,1945.163043 1659.824477,1947.547792 1655.446280,1944.697045 1653.045772,1948.412252 1652.454608,1948.000871 1649.418139,1952.583040 1654.408004,1955.878912 1651.827333,1959.813248 1647.984793,1957.328368 1644.896568,1962.043060 1644.374796,1961.688581 1642.214719,1964.974437 1641.762132,1964.687978 1633.620098,1977.173243"/>
    <poly id="1056901979" type="building.apartments" color="255,230,230" fill="1" layer="-1.00" shape="1687.370709,1894.933357 1692.632289,1897.633643 1694.551164,1898.625781 1689.892298,1905.602742 1688.422886,1904.685669 1686.900175,1907.026715 1685.377260,1909.378881 1687.228427,1910.603351 1685.010936,1913.943744 1684.600394,1913.669183 1682.728958,1916.582180 1677.015546,1912.794583 1676.674600,1912.565805 1687.370709,1894.933357"/>
    <poly id="1056901980" type="building.apartments" color="255,230,230" fill="1" layer="-1.00" shape="1677.015546,1912.794583 1667.111883,1927.961244 1673.257776,1931.979304 1674.939518,1929.418734 1675.099427,1929.532928 1677.658592,1925.620451 1676.948740,1925.151253 1678.536468,1922.722422 1680.124403,1920.282473 1680.827418,1920.740421 1683.306657,1916.959945 1682.728958,1916.582180 1677.015546,1912.794583"/>
    <poly id="1057425880" type="leisure.park" color="207,245,201" fill="1" layer="-2.00" shape="1344.232851,2237.213199 1342.619296,2236.093343 1340.494905,2235.553591 1338.509154,2235.516942 1336.330815,2235.610219 1334.248738,2235.449439 1332.272631,2234.890180 1330.285519,2234.163871 1327.566902,2232.233880 1326.201442,2231.029622 1324.349835,2229.449328 1322.547995,2228.225896 1321.309209,2227.791479 1320.036512,2227.667886 1316.491469,2227.769322 1316.358094,2226.598924 1316.217678,2225.428397 1316.121014,2224.559003 1316.339327,2221.125959 1316.908971,2218.122079 1318.117637,2214.462598 1319.245144,2212.147528 1336.125903,2196.330378 1338.249847,2195.368486 1339.870816,2194.942350 1341.966377,2195.136750 1344.153955,2195.688792 1345.730672,2196.896954 1346.848099,2198.563813 1347.797883,2200.917218 1347.749686,2223.374093 1346.756192,2223.389126 1346.797722,2226.482145 1347.798667,2226.445004 1347.855715,2229.460447 1347.499640,2231.578409 1346.785876,2233.611906 1346.014421,2234.954699 1345.639224,2235.437195 1344.932517,2236.325132 1344.232851,2237.213199"/>
    <poly id="1057425890" type="landuse.grass" color="194,194,130" fill="1" layer="-3.00" shape="1344.853406,2202.064179 1344.859139,2202.898526 1344.751178,2203.786390 1344.513120,2204.471635 1344.152684,2205.299224 1343.883521,2205.761431 1343.645052,2206.468915 1343.597799,2207.502502 1343.681876,2208.671991 1343.907544,2209.421411 1344.222228,2209.927763 1344.639048,2210.625096 1344.906350,2211.408654 1345.132839,2212.113596 1345.158876,2212.992811 1344.990208,2213.734953 1344.691237,2214.285596 1344.232565,2214.710935 1343.629775,2215.311587 1343.020559,2215.878750 1342.435611,2216.657702 1341.901596,2217.348608 1341.335516,2218.250264 1340.738191,2219.318192 1340.269258,2220.299503 1339.897062,2221.382708 1339.551802,2222.533150 1339.391268,2223.598016 1339.283719,2224.463642 1339.283027,2225.264500 1339.585396,2226.438018 1339.956336,2227.712910 1340.330148,2228.832130 1340.733769,2229.862915 1341.028622,2230.680351 1341.086520,2231.359936 1341.008305,2231.781174 1340.795888,2232.222182 1340.454052,2232.805404 1340.060193,2233.154077 1339.557156,2233.311642 1336.518911,2233.433541 1335.660648,2233.373209 1334.458369,2233.250912 1333.237427,2232.994793 1331.991191,2232.582482 1330.908350,2232.095324 1329.976051,2231.466343 1328.907023,2230.612374 1327.705843,2229.666982 1326.852849,2228.939356 1326.080186,2228.057487 1325.429488,2227.055514 1324.705640,2225.818604 1324.246913,2224.720064 1323.895658,2223.523399 1323.787580,2222.509193 1323.679025,2221.139035 1323.654971,2219.770436 1323.874298,2218.573176 1324.138403,2217.621454 1324.431766,2216.992844 1324.985467,2216.380161 1325.402503,2215.920682 1325.901101,2215.240244 1326.423493,2214.415642 1326.733607,2213.642740 1326.945754,2212.834661 1327.119614,2212.192723 1327.316035,2211.473339 1327.801307,2210.369972 1328.140614,2209.541993 1328.405336,2208.556912 1328.749569,2207.462067 1329.131948,2206.590389 1329.603612,2205.842715 1330.171398,2205.230293 1331.064334,2204.557132 1331.926231,2204.039123 1332.678603,2203.730434 1333.549248,2203.501791 1334.458591,2203.084767 1335.235782,2202.576319 1335.703754,2202.028795 1336.057147,2201.201076 1336.391672,2200.250653 1336.872432,2199.391915 1337.435025,2198.679289 1338.239563,2198.215839 1339.133592,2197.865272 1339.969851,2197.591502 1340.941403,2197.620556 1342.029381,2197.829730 1342.791388,2198.144121 1343.416523,2198.622833 1343.932750,2199.277507 1344.309783,2199.840626 1344.647298,2200.636604 1344.810206,2201.351496 1344.853406,2202.064179"/>
    <poly id="1057425891" type="landuse.grass" color="194,194,130" fill="1" layer="-3.00" shape="1316.217678,2225.428397 1317.515605,2225.329990 1318.481546,2225.281073 1319.376251,2225.275336 1319.896720,2225.318309 1320.509756,2225.307374 1320.984011,2225.182647 1321.349703,2224.833452 1321.661318,2224.360904 1321.889459,2223.831199 1321.998507,2223.265928 1322.132783,2222.478658 1322.135319,2221.577724 1322.113316,2220.097931 1322.188526,2219.075984 1322.397939,2218.034266 1322.680911,2217.205247 1322.860787,2216.619036 1323.209868,2216.024824 1323.568929,2215.653260 1324.085780,2215.128883 1324.700944,2214.239255 1325.040316,2213.789465 1325.343799,2212.994194 1325.458863,2212.484650 1325.534960,2211.796415 1325.757086,2211.210984 1326.583101,2209.201802 1326.942648,2208.040500 1327.501349,2206.393451 1327.896580,2205.588750 1328.294955,2204.995448 1328.732912,2204.547478 1336.545662,2197.250228 1337.044329,2196.947981 1337.819059,2196.572966 1338.550718,2196.241649 1339.216539,2196.042596 1339.881334,2195.899141 1340.606837,2195.901407 1341.864638,2196.069222 1342.769121,2196.297257 1343.566336,2196.612297 1344.213829,2197.024683 1344.837322,2197.592351 1345.401609,2198.314651 1345.799152,2198.911519 1346.200042,2199.708666 1346.443552,2200.636387 1346.599008,2201.373388 1346.615476,2202.007715 1346.731164,2212.532409 1346.683641,2213.198924 1346.667569,2213.688049 1346.545667,2214.186344 1346.296603,2214.704538 1345.905885,2215.264610 1345.538960,2215.680520 1344.894535,2216.247033 1343.954423,2217.186278 1343.181261,2218.239837 1342.294264,2219.736223 1341.529913,2221.457337 1341.117584,2222.806759 1340.853745,2224.125552 1340.811008,2224.914511 1340.967285,2225.607034 1341.424635,2227.161602 1342.024320,2229.019123 1342.849543,2230.869683 1343.781417,2232.666596 1344.628520,2234.094879 1345.639224,2235.437195 1346.014421,2234.954699 1346.785876,2233.611906 1347.499640,2231.578409 1347.855715,2229.460447 1347.798667,2226.445004 1346.797722,2226.482145 1346.756192,2223.389126 1347.749686,2223.374093 1347.797883,2200.917218 1346.848099,2198.563813 1345.730672,2196.896954 1344.153955,2195.688792 1341.966377,2195.136750 1339.870816,2194.942350 1338.249847,2195.368486 1336.125903,2196.330378 1319.245144,2212.147528 1318.117637,2214.462598 1316.908971,2218.122079 1316.339327,2221.125959 1316.121014,2224.559003 1316.217678,2225.428397"/>
    <poly id="1058823800" type="leisure.park" color="207,245,201" fill="1" layer="-2.00" shape="1597.306492,2165.206706 1589.999227,2158.486541 1588.909052,2157.253937 1588.590845,2156.558409 1588.332469,2155.674893 1588.347601,2154.095675 1588.172399,2152.524059 1587.630042,2151.379454 1586.309496,2149.653167 1578.666863,2142.782212 1577.802731,2142.276803 1577.116749,2142.041647 1575.962716,2141.975803 1574.840649,2142.466713 1574.267842,2142.967784 1573.859924,2143.694371 1564.544318,2165.190081 1564.073632,2167.406019 1564.090267,2169.553110 1564.258324,2171.892096 1564.918022,2173.928726 1565.716196,2175.333895 1567.429687,2177.523498 1582.116057,2190.887243 1581.620096,2191.423104 1584.856740,2194.286043 1588.086338,2197.148853 1588.503194,2196.700514 1605.918821,2212.550818 1607.338249,2213.500315 1609.022541,2214.221127 1611.161617,2214.727892 1613.277215,2214.600199 1614.906274,2214.118681 1616.667640,2213.339286 1637.627164,2201.747545 1638.250498,2201.180677 1638.670240,2200.576670 1638.960512,2199.736678 1639.006176,2198.792049 1638.809334,2198.009778 1638.071309,2197.161873 1628.711280,2188.701794 1627.743593,2188.083227 1626.792091,2187.731917 1625.301712,2187.570851 1623.779623,2187.220103 1622.326717,2186.937375 1621.105526,2186.314117 1619.723566,2185.242954 1612.839113,2178.897648 1605.524550,2187.037958 1601.305270,2183.222471 1601.126345,2183.374885 1600.179711,2183.902405 1598.892146,2184.201152 1597.575957,2184.143426 1596.322686,2183.730921 1595.230507,2182.987701 1594.382890,2181.970926 1593.841566,2180.770723 1593.654593,2179.454723 1593.695975,2179.121792 1593.826749,2178.145368 1594.356183,2176.942733 1590.206275,2173.184155 1597.306492,2165.206706"/>
    <poly id="1058823801" type="amenity.townhall" color="237,199,199" fill="1" layer="-1.00" shape="1631.564778,2179.155268 1637.813951,2172.252195 1639.698005,2170.173661 1640.392094,2170.731549 1642.974271,2168.232134 1648.212466,2162.289200 1658.495138,2151.356358 1635.525435,2134.535450 1623.224022,2125.520390 1600.038675,2108.539929 1594.076597,2115.915536 1593.688220,2115.585776 1580.264648,2132.189092 1584.322847,2135.957087 1589.218903,2140.508091 1590.161954,2139.413218 1596.595811,2142.324199 1601.921787,2148.384807 1607.796715,2153.710323 1602.051803,2160.010986 1597.306492,2165.206706 1590.206275,2173.184155 1594.356183,2176.942733 1593.826749,2178.145368 1593.695975,2179.121792 1593.654593,2179.454723 1593.841566,2180.770723 1594.382890,2181.970926 1595.230507,2182.987701 1596.322686,2183.730921 1597.575957,2184.143426 1598.892146,2184.201152 1600.179711,2183.902405 1601.126345,2183.374885 1601.305270,2183.222471 1605.524550,2187.037958 1612.839113,2178.897648 1617.096739,2174.171214 1621.138796,2169.674382 1631.564778,2179.155268"/>