<?xml version="1.0" encoding="UTF-8"?>

<!-- generated on 2024-05-28 10:01:46.883054 by randomTrips.py v1_19_0+0000-baa66a0f364
<configuration>
    <net-file value="C:\Users\moise\PycharmProjects\pythonProjectDavide\Sumo\osm.net.xml.gz"/>
    <output-trip-file value="C:\Users\moise\PycharmProjects\pythonProjectDavide\Sumo\osm.passenger.trips.xml"/>
    <route-file value="C:\Users\moise\PycharmProjects\pythonProjectDavide\Sumo\osm.passenger.rou.xml"/>
    <fringe-factor value="30"/>
    <remove-loops value="True"/>
    <validate value="True"/>
    <begin value="28800.0"/>
    <end value="72000.0"/>
    <insertion-rate value="2000.0"/>
</configuration>
-->

<!-- generated on 2024-05-28 10:01:46 by Eclipse SUMO duarouter Version 1.19.0
<configuration xmlns:xsi="http://www.w3.org/2001/XMLSchema-instance" xsi:noNamespaceSchemaLocation="http://sumo.dlr.de/xsd/duarouterConfiguration.xsd">

    <input>
        <net-file value="C:\Users\moise\PycharmProjects\pythonProjectDavide\Sumo\osm.net.xml.gz"/>
        <route-files value="C:\Users\moise\PycharmProjects\pythonProjectDavide\Sumo\osm.passenger.trips.xml"/>
    </input>

    <output>
        <output-file value="C:\Users\moise\PycharmProjects\pythonProjectDavide\Sumo\osm.passenger.trips.xml.tmp"/>
        <alternatives-output value="NUL"/>
        <write-trips value="true"/>
    </output>

    <processing>
        <remove-loops value="true"/>
    </processing>

    <time>
        <begin value="28800.0"/>
        <end value="72000.0"/>
    </time>

    <report>
        <no-warnings value="true"/>
        <ignore-errors value="true"/>
        <no-step-log value="true"/>
    </report>

</configuration>
-->

<routes xmlns:xsi="http://www.w3.org/2001/XMLSchema-instance" xsi:noNamespaceSchemaLocation="http://sumo.dlr.de/xsd/routes_file.xsd">
    <trip id="0" depart="28800.00" from="4730616#1" to="-236306864#4"/>
    <trip id="1" depart="28801.80" from="137238867#0" to="117055114#0"/>
    <trip id="2" depart="28803.60" from="552794577" to="4726717"/>
    <trip id="3" depart="28805.40" from="8384893#1" to="-524150338#1"/>
    <trip id="4" depart="28807.20" from="29000804.26" to="-28575360"/>
    <trip id="5" depart="28809.00" from="1188284582#2" to="31449018"/>
    <trip id="6" depart="28810.80" from="28575360" to="109398805"/>
    <trip id="7" depart="28812.60" from="4730631#0" to="393494867"/>
    <trip id="8" depart="28814.40" from="1188284582#2" to="395073288"/>
    <trip id="9" depart="28816.20" from="628782529#0" to="-13853659#1"/>
    <trip id="10" depart="28818.00" from="628782529#0" to="4730636"/>
    <trip id="11" depart="28819.80" from="14858868" to="1053478472#3"/>
    <trip id="12" depart="28821.60" from="96016135" to="14858640"/>
    <trip id="13" depart="28823.40" from="40493418" to="-524150338#1"/>
    <trip id="14" depart="28825.20" from="65583365#1" to="40487883"/>
    <trip id="15" depart="28827.00" from="628782529#0" to="510481270"/>
    <trip id="16" depart="28828.80" from="327412184" to="856293285#1"/>
    <trip id="17" depart="28830.60" from="181218814#1" to="393494867"/>
    <trip id="18" depart="28832.40" from="628782529#0" to="410939625"/>
    <trip id="19" depart="28834.20" from="7682864#2" to="393494867"/>
    <trip id="20" depart="28836.00" from="17073048#0" to="-36786445#2"/>
    <trip id="21" depart="28837.80" from="1198625656" to="1196782590#0"/>
    <trip id="22" depart="28839.60" from="-4726710#1" to="117055114#0"/>
    <trip id="23" depart="28841.40" from="-524150326#0" to="1196782590#0"/>
    <trip id="24" depart="28843.20" from="4726717" to="158331590"/>
    <trip id="25" depart="28845.00" from="180020059#1" to="1156337042"/>
    <trip id="26" depart="28846.80" from="13654453" to="856293283"/>
    <trip id="27" depart="28848.60" from="4730624" to="40493418"/>
    <trip id="28" depart="28850.40" from="1041085657" to="510481270"/>
    <trip id="29" depart="28852.20" from="-96016135" to="180156396#0"/>
    <trip id="33" depart="28859.40" from="1198625658" to="31411680"/>
    <trip id="34" depart="28861.20" from="14858868" to="1196782590#0"/>
    <trip id="35" depart="28863.00" from="1188284582#2" to="856293285#1"/>
    <trip id="36" depart="28864.80" from="8152038" to="13853655#0"/>
    <trip id="37" depart="28866.60" from="4730636" to="19846527#0"/>
    <trip id="38" depart="28868.40" from="839709051" to="30239233#0"/>
    <trip id="39" depart="28870.20" from="13654453" to="117055114#0"/>
    <trip id="40" depart="28872.00" from="395800497#0" to="1196782590#0"/>
    <trip id="41" depart="28873.80" from="410939625" to="839709054"/>
    <trip id="42" depart="28875.60" from="231483339#0" to="117055114#0"/>
    <trip id="43" depart="28877.40" from="963479927#0" to="31512978#0"/>
    <trip id="44" depart="28879.20" from="-4730648#1" to="-400062405"/>
    <trip id="45" depart="28881.00" from="-628755544#4" to="4392761#0"/>
    <trip id="46" depart="28882.80" from="625259600" to="237344387"/>
    <trip id="47" depart="28884.60" from="-4726710#1" to="180156396#1"/>
    <trip id="48" depart="28886.40" from="963479927#0" to="36801001#1"/>
    <trip id="49" depart="28888.20" from="963479927#0" to="8152056"/>
    <trip id="50" depart="28890.00" from="-14858868" to="-47446166"/>
    <trip id="51" depart="28891.80" from="507818916" to="37535329#0"/>
    <trip id="52" depart="28893.60" from="13654453" to="4441063"/>
    <trip id="53" depart="28895.40" from="-628755547#5" to="181218814#0"/>
    <trip id="54" depart="28897.20" from="31389787#2" to="856293285#1"/>
    <trip id="55" depart="28899.00" from="8152038" to="1196782590#0"/>
    <trip id="56" depart="28900.80" from="31411842" to="1053478472#3"/>
    <trip id="59" depart="28906.20" from="4690591#0" to="1053478472#3"/>
    <trip id="60" depart="28908.00" from="625259600" to="377719664"/>
    <trip id="61" depart="28909.80" from="625259600" to="36801001#1"/>
    <trip id="62" depart="28911.60" from="-1024105863" to="13853661#1"/>
    <trip id="63" depart="28913.40" from="450925440" to="839709054"/>
    <trip id="64" depart="28915.20" from="8152060#0" to="693295225"/>
    <trip id="65" depart="28917.00" from="14858868" to="-4730648#1"/>
    <trip id="66" depart="28918.80" from="8152056" to="856293285#1"/>
    <trip id="67" depart="28920.60" from="-4726710#1" to="31427257#0"/>
    <trip id="68" depart="28922.40" from="-4726710#1" to="606127854"/>
    <trip id="69" depart="28924.20" from="625259600" to="628757206#0"/>
    <trip id="70" depart="28926.00" from="31411842" to="393494867"/>
    <trip id="72" depart="28929.60" from="29023713" to="1168195444"/>
    <trip id="73" depart="28931.40" from="33301560" to="510481270"/>
    <trip id="74" depart="28933.20" from="1188284582#2" to="137238867#0"/>
    <trip id="75" depart="28935.00" from="963479927#0" to="4726679#1"/>
    <trip id="77" depart="28938.60" from="-832487280" to="117055114#0"/>
    <trip id="78" depart="28940.40" from="14858868" to="395073288"/>
    <trip id="79" depart="28942.20" from="1238600634#0" to="117055114#0"/>
    <trip id="80" depart="28944.00" from="-4726710#1" to="4392761#3"/>
    <trip id="81" depart="28945.80" from="1198625658" to="839709054"/>
    <trip id="82" depart="28947.60" from="759157551" to="-524150326#0"/>
    <trip id="83" depart="28949.40" from="13654453" to="4726706#2"/>
    <trip id="84" depart="28951.20" from="1188284582#2" to="-781742860#1"/>
    <trip id="85" depart="28953.00" from="839709051" to="393494867"/>
    <trip id="86" depart="28954.80" from="31411842" to="625259599"/>
    <trip id="87" depart="28956.60" from="628782529#0" to="1053478472#3"/>
    <trip id="88" depart="28958.40" from="47896065" to="28275167"/>
    <trip id="90" depart="28962.00" from="524150338#0" to="4726711#1"/>
    <trip id="91" depart="28963.80" from="963479927#0" to="-17073048#1"/>
    <trip id="92" depart="28965.60" from="231945290#0" to="14858642#1"/>
    <trip id="93" depart="28967.40" from="7682864#2" to="117055114#0"/>
    <trip id="94" depart="28969.20" from="1188284582#2" to="30239233#0"/>
    <trip id="95" depart="28971.00" from="29000804.26" to="1196782590#0"/>
    <trip id="96" depart="28972.80" from="13654453" to="839709054"/>
    <trip id="98" depart="28976.40" from="36801004#1" to="-40493501#4"/>
    <trip id="99" depart="28978.20" from="E1" to="720012595#0"/>
    <trip id="100" depart="28980.00" from="963479927#0" to="839709054"/>
    <trip id="101" depart="28981.80" from="687383599#0" to="1053478472#3"/>
    <trip id="102" depart="28983.60" from="31411842" to="117055114#0"/>
    <trip id="103" depart="28985.40" from="23179512#0" to="-4730648#1"/>
    <trip id="105" depart="28989.00" from="13654453" to="625259599"/>
    <trip id="107" depart="28992.60" from="96016135" to="900443644#0"/>
    <trip id="108" depart="28994.40" from="377719665" to="4730651"/>
    <trip id="109" depart="28996.20" from="-96016135" to="1196782590#0"/>
    <trip id="110" depart="28998.00" from="963479927#0" to="393494867"/>
    <trip id="111" depart="28999.80" from="34065519" to="567036033"/>
    <trip id="112" depart="29001.60" from="-4726710#1" to="393494867"/>
    <trip id="113" depart="29003.40" from="31411842" to="8152033#0"/>
    <trip id="114" depart="29005.20" from="-96016135" to="856293285#1"/>
    <trip id="115" depart="29007.00" from="-4726710#1" to="1053478472#3"/>
    <trip id="116" depart="29008.80" from="4392761#3" to="4726712"/>
    <trip id="118" depart="29012.40" from="8384893#0" to="117055114#0"/>
    <trip id="119" depart="29014.20" from="4392761#2" to="410939626"/>
    <trip id="120" depart="29016.00" from="28275167" to="393494867"/>
    <trip id="121" depart="29017.80" from="31449007" to="856293281"/>
    <trip id="122" depart="29019.60" from="1188284582#2" to="4730649"/>
    <trip id="123" depart="29021.40" from="13654453" to="19846527#0"/>
    <trip id="124" depart="29023.20" from="4730649" to="1196782590#0"/>
    <trip id="125" depart="29025.00" from="14858868" to="583307357#0"/>
    <trip id="126" depart="29026.80" from="-4726710#1" to="30239233#0"/>
    <trip id="127" depart="29028.60" from="963479927#0" to="96016135"/>
    <trip id="128" depart="29030.40" from="-4726710#1" to="117055114#0"/>
    <trip id="129" depart="29032.20" from="13654453" to="839709054"/>
    <trip id="130" depart="29034.00" from="8152060#1" to="8384902"/>
    <trip id="131" depart="29035.80" from="180020059#0" to="1053478472#3"/>
    <trip id="132" depart="29037.60" from="628782529#0" to="4730637#3"/>
    <trip id="134" depart="29041.20" from="4730634" to="-13853663"/>
    <trip id="135" depart="29043.00" from="628782529#0" to="1196782590#0"/>
    <trip id="136" depart="29044.80" from="4730644" to="856293284"/>
    <trip id="137" depart="29046.60" from="-96016135" to="-17073048#1"/>
    <trip id="138" depart="29048.40" from="-5450858#1" to="393494867"/>
    <trip id="139" depart="29050.20" from="13654453" to="40493384#2"/>
    <trip id="140" depart="29052.00" from="524150338#0" to="1111110395"/>
    <trip id="141" depart="29053.80" from="4726712" to="1196782590#0"/>
    <trip id="142" depart="29055.60" from="31411842" to="839709054"/>
    <trip id="143" depart="29057.40" from="65583365#0" to="-524150338#1"/>
    <trip id="145" depart="29061.00" from="-1238600634#0" to="625259599"/>
    <trip id="147" depart="29064.60" from="583307357#0" to="393494867"/>
    <trip id="149" depart="29068.20" from="-4726710#1" to="8384914"/>
    <trip id="150" depart="29070.00" from="839709051" to="393494867"/>
    <trip id="151" depart="29071.80" from="628782529#0" to="393494867"/>
    <trip id="152" depart="29073.60" from="-96016135" to="628757206#0"/>
    <trip id="153" depart="29075.40" from="14858868" to="839709054"/>
    <trip id="154" depart="29077.20" from="627916937" to="8152038"/>
    <trip id="155" depart="29079.00" from="8384918" to="1156337042"/>
    <trip id="156" depart="29080.80" from="13654453" to="-524150338#1"/>
    <trip id="157" depart="29082.60" from="625259600" to="8384914"/>
    <trip id="158" depart="29084.40" from="231945290#3" to="410939626"/>
    <trip id="159" depart="29086.20" from="-96016135" to="839709054"/>
    <trip id="160" depart="29088.00" from="772942669" to="856293285#1"/>
    <trip id="161" depart="29089.80" from="628782529#0" to="8384905"/>
    <trip id="163" depart="29093.40" from="14858868" to="839709054"/>
    <trip id="164" depart="29095.20" from="628782529#0" to="8152060#1"/>
    <trip id="165" depart="29097.00" from="628782529#0" to="1196782590#0"/>
    <trip id="166" depart="29098.80" from="625259600" to="-17073048#1"/>
    <trip id="167" depart="29100.60" from="8152036#0" to="8152037#1"/>
    <trip id="168" depart="29102.40" from="1188284582#2" to="628755547#0"/>
    <trip id="170" depart="29106.00" from="627916936#1" to="117055114#0"/>
    <trip id="171" depart="29107.80" from="-244422544" to="1053478472#3"/>
    <trip id="172" depart="29109.60" from="14858868" to="8152060#1"/>
    <trip id="173" depart="29111.40" from="963479927#0" to="1196782590#0"/>
    <trip id="174" depart="29113.20" from="4730616#2" to="21766158#0"/>
    <trip id="175" depart="29115.00" from="963479927#0" to="36801004#2"/>
    <trip id="176" depart="29116.80" from="839709051" to="-17073048#1"/>
    <trip id="177" depart="29118.60" from="963479927#0" to="1053478472#3"/>
    <trip id="178" depart="29120.40" from="963479927#0" to="1196782590#0"/>
    <trip id="179" depart="29122.20" from="-628755543" to="29023713"/>
    <trip id="180" depart="29124.00" from="524150338#0" to="137238867#2"/>
    <trip id="181" depart="29125.80" from="450186404" to="31518448"/>
    <trip id="182" depart="29127.60" from="183370113#2" to="393494867"/>
    <trip id="183" depart="29129.40" from="13654453" to="4730647#0"/>
    <trip id="184" depart="29131.20" from="-1106583870" to="839709054"/>
    <trip id="185" depart="29133.00" from="39642340#2" to="4726706#2"/>
    <trip id="186" depart="29134.80" from="583307357#0" to="4726710#0"/>
    <trip id="187" depart="29136.60" from="16233735#0" to="-524150326#0"/>
    <trip id="188" depart="29138.40" from="4730647#0" to="14118783"/>
    <trip id="189" depart="29140.20" from="14858868" to="781742860#1"/>
    <trip id="190" depart="29142.00" from="524150338#0" to="1196782590#0"/>
    <trip id="191" depart="29143.80" from="14858868" to="231483339#0"/>
    <trip id="192" depart="29145.60" from="231940830#0" to="1196782590#0"/>
    <trip id="193" depart="29147.40" from="-875772621#0" to="33301663#0"/>
    <trip id="194" depart="29149.20" from="839709051" to="4726737"/>
    <trip id="195" depart="29151.00" from="839709051" to="40493502"/>
    <trip id="196" depart="29152.80" from="14858643#0" to="393494867"/>
    <trip id="197" depart="29154.60" from="-1024105863" to="1196782590#0"/>
    <trip id="199" depart="29158.20" from="4730634" to="30239233#0"/>
    <trip id="200" depart="29160.00" from="31389787#2" to="117055114#0"/>
    <trip id="201" depart="29161.80" from="31411842" to="839709054"/>
    <trip id="202" depart="29163.60" from="627916936#1" to="1053478472#3"/>
    <trip id="203" depart="29165.40" from="-4726710#1" to="606127853"/>
    <trip id="204" depart="29167.20" from="4726711#1" to="14118785#1"/>
    <trip id="205" depart="29169.00" from="628782529#0" to="583307357#0"/>
    <trip id="206" depart="29170.80" from="4730651" to="117055114#0"/>
    <trip id="207" depart="29172.60" from="1188284582#2" to="236306864#0"/>
    <trip id="208" depart="29174.40" from="13654453" to="30239233#0"/>
    <trip id="209" depart="29176.20" from="691307157" to="-524150338#1"/>
    <trip id="210" depart="29178.00" from="258274084" to="4392761#3"/>
    <trip id="211" depart="29179.80" from="1188284582#2" to="4730634"/>
    <trip id="212" depart="29181.60" from="31411842" to="117055114#0"/>
    <trip id="213" depart="29183.40" from="4730636" to="-13853658"/>
    <trip id="214" depart="29185.20" from="610739513#0" to="625259599"/>
    <trip id="215" depart="29187.00" from="-5450858#1" to="244422544"/>
    <trip id="216" depart="29188.80" from="109398805" to="856293285#1"/>
    <trip id="217" depart="29190.60" from="31448934#1" to="-40493501#3"/>
    <trip id="218" depart="29192.40" from="13654453" to="781742860#1"/>
    <trip id="221" depart="29197.80" from="4392761#3" to="856293285#1"/>
    <trip id="222" depart="29199.60" from="8384893#0" to="40493501#3"/>
    <trip id="223" depart="29201.40" from="524150338#0" to="31449010#0"/>
    <trip id="224" depart="29203.20" from="628782529#0" to="393494867"/>
    <trip id="225" depart="29205.00" from="8384914" to="5450860#0"/>
    <trip id="226" depart="29206.80" from="31411842" to="1196782590#0"/>
    <trip id="227" depart="29208.60" from="13654453" to="4441061"/>
    <trip id="228" depart="29210.40" from="625259600" to="33301531"/>
    <trip id="229" depart="29212.20" from="4726706#0" to="1196782590#0"/>
    <trip id="230" depart="29214.00" from="-4726710#1" to="1196782590#0"/>
    <trip id="231" depart="29215.80" from="13654453" to="13853658"/>
    <trip id="232" depart="29217.60" from="236306864#0" to="-832629331#0"/>
    <trip id="233" depart="29219.40" from="1238600634#0" to="4730631#1"/>
    <trip id="234" depart="29221.20" from="524150338#0" to="-47895849#2"/>
    <trip id="235" depart="29223.00" from="231945290#3" to="393494867"/>
    <trip id="236" depart="29224.80" from="265113917" to="1150906866"/>
    <trip id="237" depart="29226.60" from="28575360" to="839709054"/>
    <trip id="238" depart="29228.40" from="40598677" to="4730633"/>
    <trip id="239" depart="29230.20" from="745660413#0" to="616545123"/>
    <trip id="240" depart="29232.00" from="181218814#2" to="-13853658"/>
    <trip id="241" depart="29233.80" from="150276013#0" to="583307357#1"/>
    <trip id="242" depart="29235.60" from="70724347#1" to="856293285#1"/>
    <trip id="243" depart="29237.40" from="8152038" to="567036033"/>
    <trip id="244" depart="29239.20" from="36801001#1" to="40487883"/>
    <trip id="245" depart="29241.00" from="1188284582#2" to="117055114#0"/>
    <trip id="247" depart="29244.60" from="14858868" to="4726785#1"/>
    <trip id="248" depart="29246.40" from="231945290#2" to="1053478472#3"/>
    <trip id="249" depart="29248.20" from="31411842" to="-628757206#2"/>
    <trip id="250" depart="29250.00" from="4726685#1" to="-244422544"/>
    <trip id="251" depart="29251.80" from="220137286#2" to="393494867"/>
    <trip id="252" depart="29253.60" from="28575360" to="450186404"/>
    <trip id="253" depart="29255.40" from="-96016135" to="30239233#0"/>
    <trip id="254" depart="29257.20" from="-4726710#1" to="180022161"/>
    <trip id="255" depart="29259.00" from="1188284582#2" to="14108346"/>
    <trip id="256" depart="29260.80" from="625259600" to="180022161"/>
    <trip id="257" depart="29262.60" from="610739513#1" to="693295225"/>
    <trip id="258" depart="29264.40" from="13654453" to="-524150338#1"/>
    <trip id="259" depart="29266.20" from="-17670100#2" to="377719664"/>
    <trip id="260" depart="29268.00" from="E1" to="150276003#0"/>
    <trip id="261" depart="29269.80" from="4730631#0" to="625259599"/>
    <trip id="262" depart="29271.60" from="4730631#1" to="583307357#2"/>
    <trip id="263" depart="29273.40" from="875773546" to="109398805"/>
    <trip id="264" depart="29275.20" from="-231940830#2" to="1053478472#3"/>
    <trip id="265" depart="29277.00" from="-8384914" to="4726706#2"/>
    <trip id="266" depart="29278.80" from="39642340#2" to="117055114#0"/>
    <trip id="267" depart="29280.60" from="524150338#0" to="616545124"/>
    <trip id="268" depart="29282.40" from="-96016135" to="40493385#0"/>
    <trip id="269" depart="29284.20" from="606127853" to="-524150338#1"/>
    <trip id="270" depart="29286.00" from="628782529#0" to="856293285#1"/>
    <trip id="271" depart="29287.80" from="-628755543" to="-237344387"/>
    <trip id="272" depart="29289.60" from="14858868" to="4726737"/>
    <trip id="273" depart="29291.40" from="96016144" to="19846527#0"/>
    <trip id="274" depart="29293.20" from="524150338#0" to="-524150338#1"/>
    <trip id="275" depart="29295.00" from="524150338#0" to="4392761#0"/>
    <trip id="276" depart="29296.80" from="-524150326#0" to="625259599"/>
    <trip id="277" depart="29298.60" from="691307157" to="400062408"/>
    <trip id="278" depart="29300.40" from="-832487280" to="856293285#1"/>
    <trip id="279" depart="29302.20" from="625259600" to="150275999#2"/>
    <trip id="281" depart="29305.80" from="150275991#1" to="14858643#0"/>
    <trip id="282" depart="29307.60" from="687383599#0" to="37535329#0"/>
    <trip id="283" depart="29309.40" from="5450857#0" to="856293285#1"/>
    <trip id="284" depart="29311.20" from="4726717" to="687383599#0"/>
    <trip id="285" depart="29313.00" from="524150338#0" to="29023713"/>
    <trip id="286" depart="29314.80" from="5450860#0" to="856293285#1"/>
    <trip id="287" depart="29316.60" from="13654453" to="625259599"/>
    <trip id="288" depart="29318.40" from="39642340#2" to="31411680"/>
    <trip id="290" depart="29322.00" from="13654453" to="781742860#4"/>
    <trip id="291" depart="29323.80" from="628782529#0" to="-524150338#1"/>
    <trip id="292" depart="29325.60" from="832488060#1" to="117055114#0"/>
    <trip id="294" depart="29329.20" from="181218814#1" to="-265113917"/>
    <trip id="295" depart="29331.00" from="691307157" to="1053478472#3"/>
    <trip id="296" depart="29332.80" from="1188284582#2" to="625259599"/>
    <trip id="297" depart="29334.60" from="14858868" to="8384905"/>
    <trip id="298" depart="29336.40" from="524150338#0" to="1196782590#0"/>
    <trip id="299" depart="29338.20" from="-14118784#1" to="856293285#1"/>
    <trip id="300" depart="29340.00" from="-4726710#1" to="47446166"/>
    <trip id="301" depart="29341.80" from="31411842" to="591680761#0"/>
    <trip id="302" depart="29343.60" from="17073048#0" to="4690591#0"/>
    <trip id="303" depart="29345.40" from="31411842" to="625259599"/>
    <trip id="304" depart="29347.20" from="-47446166" to="117055114#0"/>
    <trip id="305" depart="29349.00" from="524150338#0" to="-1238600634#0"/>
    <trip id="306" depart="29350.80" from="14118784#1" to="30239233#0"/>
    <trip id="308" depart="29354.40" from="583307358" to="14118784#0"/>
    <trip id="309" depart="29356.20" from="524150338#0" to="1196782590#0"/>
    <trip id="310" depart="29358.00" from="13654453" to="-5450858#1"/>
    <trip id="312" depart="29361.60" from="31520176" to="610739513#0"/>
    <trip id="313" depart="29363.40" from="1156337042" to="117055114#0"/>
    <trip id="314" depart="29365.20" from="31411842" to="47895849#2"/>
    <trip id="315" depart="29367.00" from="963479927#0" to="34065519"/>
    <trip id="316" depart="29368.80" from="13853659#0" to="-524150338#1"/>
    <trip id="317" depart="29370.60" from="1188284582#2" to="117055114#0"/>
    <trip id="318" depart="29372.40" from="1111110395" to="-150276003#0"/>
    <trip id="319" depart="29374.20" from="31520175" to="1196782590#0"/>
    <trip id="320" depart="29376.00" from="963479927#0" to="393494867"/>
    <trip id="321" depart="29377.80" from="17073048#0" to="-628755547#5"/>
    <trip id="322" depart="29379.60" from="781742860#4" to="31427257#4"/>
    <trip id="323" depart="29381.40" from="8152036#0" to="393494867"/>
    <trip id="324" depart="29383.20" from="31411842" to="30239233#0"/>
    <trip id="325" depart="29385.00" from="1156337042" to="-40493501#4"/>
    <trip id="326" depart="29386.80" from="839709051" to="30239233#0"/>
    <trip id="327" depart="29388.60" from="628782529#0" to="220137286#0"/>
    <trip id="328" depart="29390.40" from="-4726710#1" to="4392761#2"/>
    <trip id="329" depart="29392.20" from="-4726710#1" to="1041085657"/>
    <trip id="330" depart="29394.00" from="396062728#0" to="1198625658"/>
    <trip id="331" depart="29395.80" from="963479927#0" to="-524150347#1"/>
    <trip id="332" depart="29397.60" from="625259600" to="40493385#0"/>
    <trip id="333" depart="29399.40" from="625259600" to="117055114#0"/>
    <trip id="334" depart="29401.20" from="31449007" to="30239233#0"/>
    <trip id="336" depart="29404.80" from="963479927#0" to="-1238600634#0"/>
    <trip id="337" depart="29406.60" from="4726685#0" to="40493418"/>
    <trip id="338" depart="29408.40" from="583307354" to="856293285#1"/>
    <trip id="339" depart="29410.20" from="1188284582#2" to="1168195444"/>
    <trip id="340" depart="29412.00" from="4730637#4" to="1053478472#3"/>
    <trip id="341" depart="29413.80" from="1091652283" to="-17073048#1"/>
    <trip id="342" depart="29415.60" from="-1238600634#0" to="30239233#0"/>
    <trip id="343" depart="29417.40" from="4392761#2" to="1196782590#0"/>
    <trip id="344" depart="29419.20" from="13430690#0" to="4730644"/>
    <trip id="345" depart="29421.00" from="524150338#0" to="30239233#0"/>
    <trip id="346" depart="29422.80" from="510492456" to="839709054"/>
    <trip id="347" depart="29424.60" from="625259600" to="419709604#2"/>
    <trip id="348" depart="29426.40" from="4730637#4" to="856293281"/>
    <trip id="349" depart="29428.20" from="4726785#1" to="393494867"/>
    <trip id="350" depart="29430.00" from="4730624" to="839709054"/>
    <trip id="351" depart="29431.80" from="628782529#0" to="-524150333#1"/>
    <trip id="352" depart="29433.60" from="96016135" to="13430690#0"/>
    <trip id="353" depart="29435.40" from="606127853" to="393494867"/>
    <trip id="354" depart="29437.20" from="14108346" to="-628755544#4"/>
    <trip id="355" depart="29439.00" from="510702678#1" to="4730637#0"/>
    <trip id="356" depart="29440.80" from="856293282" to="31448937#0"/>
    <trip id="357" depart="29442.60" from="31411842" to="-524150338#1"/>
    <trip id="358" depart="29444.40" from="-36786445#2" to="28575360"/>
    <trip id="359" depart="29446.20" from="14858868" to="117055114#0"/>
    <trip id="360" depart="29448.00" from="-4730648#1" to="856293285#1"/>
    <trip id="361" depart="29449.80" from="628782529#0" to="393494867"/>
    <trip id="362" depart="29451.60" from="879483837" to="E1"/>
    <trip id="363" depart="29453.40" from="4730651" to="1196782590#0"/>
    <trip id="364" depart="29455.20" from="-36786445#2" to="583307358"/>
    <trip id="365" depart="29457.00" from="31411842" to="4726680"/>
    <trip id="366" depart="29458.80" from="839709051" to="1053478472#3"/>
    <trip id="368" depart="29462.40" from="31411842" to="-524150338#1"/>
    <trip id="369" depart="29464.20" from="150276003#0" to="14118784#1"/>
    <trip id="370" depart="29466.00" from="4730648#2" to="8152037#0"/>
    <trip id="371" depart="29467.80" from="14858868" to="4730631#1"/>
    <trip id="372" depart="29469.60" from="14108346" to="856293285#1"/>
    <trip id="373" depart="29471.40" from="628782529#0" to="393494867"/>
    <trip id="375" depart="29475.00" from="14858868" to="856293285#1"/>
    <trip id="376" depart="29476.80" from="231945290#2" to="31519076"/>
    <trip id="377" depart="29478.60" from="963479927#0" to="4726681#3"/>
    <trip id="378" depart="29480.40" from="36786444#0" to="231945290#0"/>
    <trip id="379" depart="29482.20" from="117055115" to="155433040"/>
    <trip id="380" depart="29484.00" from="625259600" to="430855719"/>
    <trip id="381" depart="29485.80" from="625259600" to="1111110395"/>
    <trip id="382" depart="29487.60" from="36801004#0" to="839709054"/>
    <trip id="384" depart="29491.20" from="-832487280" to="856293285#1"/>
    <trip id="385" depart="29493.00" from="4690591#0" to="117055114#0"/>
    <trip id="386" depart="29494.80" from="-96016135" to="393494867"/>
    <trip id="387" depart="29496.60" from="633077911" to="-524150338#1"/>
    <trip id="388" depart="29498.40" from="963479927#0" to="839709054"/>
    <trip id="390" depart="29502.00" from="628782529#0" to="31448934#1"/>
    <trip id="391" depart="29503.80" from="524150338#0" to="31512978#0"/>
    <trip id="392" depart="29505.60" from="13654453" to="720012594#0"/>
    <trip id="393" depart="29507.40" from="963479927#0" to="117055114#0"/>
    <trip id="394" depart="29509.20" from="36801004#2" to="181218814#0"/>
    <trip id="395" depart="29511.00" from="839709051" to="31512978#0"/>
    <trip id="396" depart="29512.80" from="8152060#0" to="8152060#1"/>
    <trip id="397" depart="29514.60" from="137238867#2" to="625259599"/>
    <trip id="398" depart="29516.40" from="258274084" to="856293281"/>
    <trip id="399" depart="29518.20" from="31427257#0" to="628782529#3"/>
    <trip id="400" depart="29520.00" from="13853659#0" to="1196782590#0"/>
    <trip id="401" depart="29521.80" from="410939627" to="E1"/>
    <trip id="402" depart="29523.60" from="31411842" to="1041085657"/>
    <trip id="403" depart="29525.40" from="33301560" to="31412878"/>
    <trip id="404" depart="29527.20" from="37535329#0" to="393494867"/>
    <trip id="406" depart="29530.80" from="1188284582#2" to="4730634"/>
    <trip id="407" depart="29532.60" from="-628755544#4" to="117055114#0"/>
    <trip id="408" depart="29534.40" from="625259600" to="36786444#0"/>
    <trip id="409" depart="29536.20" from="583307357#2" to="13853655#1"/>
    <trip id="410" depart="29538.00" from="628782529#0" to="181218814#2"/>
    <trip id="411" depart="29539.80" from="4730644" to="628782529#5"/>
    <trip id="412" depart="29541.60" from="963479927#0" to="31445160#1"/>
    <trip id="413" depart="29543.40" from="-34065519" to="31449007"/>
    <trip id="415" depart="29547.00" from="8152037#0" to="30239233#0"/>
    <trip id="416" depart="29548.80" from="31449245" to="30239233#0"/>
    <trip id="417" depart="29550.60" from="524150338#0" to="23179512#0"/>