<?xml version="1.0" encoding="UTF-8"?>

<!-- generated on 2024-04-17 14:08:47.350699 by randomTrips.py v1_19_0+0000-baa66a0f364
<configuration>
    <net-file value="Sumo\osm.net.xml.gz"/>
    <output-trip-file value="Sumo\osm.passenger.trips.xml"/>
    <route-file value="Sumo\osm.passenger.rou.xml"/>
    <prefix value="veh"/>
    <trip-attributes value="departLane=&quot;best&quot;"/>
    <fringe-start-attributes value="departSpeed=&quot;max&quot;"/>
    <vehicle-class value="passenger"/>
    <lanes value="True"/>
    <fringe-factor value="5"/>
    <allow-fringe.min-length value="1000.0"/>
    <via-edge-types value="highway.motorway,highway.motorway_link,highway.trunk_link,highway.primary_link,highway.secondary_link,highway.tertiary_link"/>
    <min-distance value="300.0"/>
    <min-distance.fringe value="10.0"/>
    <remove-loops value="True"/>
    <validate value="True"/>
    <insertion-density value="36.0"/>
</configuration>
-->

<!-- generated on 2024-04-17 14:08:47 by Eclipse SUMO duarouter Version 1.19.0
<configuration xmlns:xsi="http://www.w3.org/2001/XMLSchema-instance" xsi:noNamespaceSchemaLocation="http://sumo.dlr.de/xsd/duarouterConfiguration.xsd">

    <input>
        <net-file value="Sumo\osm.net.xml.gz"/>
        <route-files value="Sumo\osm.passenger.trips.xml"/>
    </input>

    <output>
        <output-file value="Sumo\osm.passenger.rou.xml"/>
        <alternatives-output value="NUL"/>
    </output>

    <processing>
        <remove-loops value="true"/>
    </processing>

    <time>
        <begin value="0.0"/>
        <end value="3600.0"/>
    </time>

    <report>
        <no-warnings value="true"/>
        <ignore-errors value="true"/>
        <no-step-log value="true"/>
    </report>

</configuration>
-->

<routes xmlns:xsi="http://www.w3.org/2001/XMLSchema-instance" xsi:noNamespaceSchemaLocation="http://sumo.dlr.de/xsd/routes_file.xsd">
    <vType id="veh_passenger" vClass="passenger"/>
    <vehicle id="veh0" type="veh_passenger" depart="0.00" departLane="best">
        <route edges="4726694#2 4726681#1 4726679#1 31512978#0 31512978#1 4392761#3 897211373#0 1091652283 897325985#1 1091652430 403882373 14858643#0 36801004#0 36801004#1 36801004#2 14858642#0 14858642#1 40487883 628755546#0 236306864#0 628755547#0 36786444#0 900443644#0 36786445#0 628757206#0 231940830#0 510492454#0 -17073048#1"/>
    </vehicle>
    <vehicle id="veh1" type="veh_passenger" depart="2.34" departLane="best">
        <route edges="14858642#0 14858642#1 4690591#0 36801001#1 36801001#2 687383599#0 5451917#0 5451917#0.13 1156329248 13853658 47895849#0 47895849#2 47896065 28575360 606127855 627916937 4730616#1 4730616#2 13853655#0"/>
    </vehicle>
    <vehicle id="veh2" type="veh_passenger" depart="4.69" departLane="best">
        <route edges="510702678#1 -31445160#1 -31445160#0 327412184 155433041 31449010#0 31449007 231483314 31449245 265117578 14118780#1 14118780#2 14118780#3 14118780#4 8384918 17670100#2 244422544 552794577 510492456 1198625658 4730633"/>
    </vehicle>
    <vehicle id="veh3" type="veh_passenger" depart="7.03" departLane="best">
        <route edges="8382447#1 16233734#0 524150333#0 16233735#0 8382440#0 875773546 265113917 414404581 70724347#1 40598677 1168195444 -781742860#4 -781742860#3 -781742860#1 -781742860#0 -510702678#1 5450857#0 40493384#2 40493385#0 231945290#0 231945290#2 231945290#3 231945290#4 231945290#5 745660413#0 -33301560 -1024105863 -4726711#1"/>
    </vehicle>
    <vehicle id="veh4" type="veh_passenger" depart="9.37" departLane="best" departSpeed="max">
        <route edges="31411842 1238600634#0 31411680 65583364 8152038 31449245 265117578 14118780#1 14118780#2 14118780#3 14118780#4 8384918 17670100#2 244422544 17073048#0 -628755543 -231940830#2"/>
    </vehicle>
    <vehicle id="veh5" type="veh_passenger" depart="11.71" departLane="best">
        <route edges="136174723 8384905 8384902 450925440 -17670100#2 -17670100#1 -832629331#0 1168195444 -781742860#4 -781742860#3 -781742860#1 -781742860#0 -510702678#1 5450857#0 40493384#2 40493385#0 231945290#0 231945290#2 231945290#3 117055115 137238867#2 4726785#1 856293284 4726717 393494867"/>
    </vehicle>
    <vehicle id="veh6" type="veh_passenger" depart="14.06" departLane="best">
        <route edges="17670100#2 244422544 552794577 510492456 1198625658 4730633 220137286#0 220137286#2 720012595#0 720012594#0 183251547 23179512#0 -13853658 -507534348#1 403882373 5451918#0 31427257#0 31427257#2 31427257#3 31427257#4 31427257#7 591680761#0 1196782590#0"/>
    </vehicle>
    <vehicle id="veh7" type="veh_passenger" depart="16.40" departLane="best">
        <route edges="15089551 180020059#0 180020059#1 180020059#2 4726706#1 4726706#2 40493418 1150906866 31449010#0 31449007 40493501#0 40493501#3 40493501#4"/>
    </vehicle>
    <vehicle id="veh8" type="veh_passenger" depart="18.74" departLane="best" departSpeed="max">
        <route edges="13643508#1 1188284582#2 879483837 510481273#0 583307358 583307354 4392761#0 4392761#2 4392761#3 897211373#0 1091652283 897325985#1 1091652430 403882373 14858643#0 36801004#0 36801004#1 36801004#2 14858642#0 14858642#1 4690591#0 124862953 856297346 4441062"/>
    </vehicle>
    <vehicle id="veh9" type="veh_passenger" depart="21.08" departLane="best" departSpeed="max">
        <route edges="625259600 4441059#1 4422176 14108346 897325985#1 1091652430 403882373 14858643#0 183370113#0.12 183370113#0.38 183370113#2 4730618 23179512#0 -13853658"/>
    </vehicle>
    <vehicle id="veh10" type="veh_passenger" depart="23.43" departLane="best" departSpeed="max">
        <route edges="625259600 4441059#1 4422176 14108346 897325985#1 1091652430 403882373 5451918#0 5451917#0 5451917#0.13 1156329248 759157551 4726681#0 4726681#1 4726681#2 4726681#3 15089643 4726685#0 4726685#1 15089551 180020059#0 180020059#1"/>
    </vehicle>
    <vehicle id="veh11" type="veh_passenger" depart="25.77" departLane="best">
        <route edges="180020059#2 4726706#1 4726706#2 40493418 1150906866 31449010#0 31449007 231483314 31449245 265117578 14118780#1 14118780#2 14118780#3 14118780#4 8384918 8384893#0 19846527#1 8382421#0 -70724345 -875772621#0"/>
    </vehicle>
    <vehicle id="veh12" type="veh_passenger" depart="28.11" departLane="best">
        <route edges="897211373#0 1091652283 897325985#1 1091652430 403882373 14858643#0 183370113#0.12 183370113#0.38 183370113#2 183370113#3"/>
    </vehicle>
    <vehicle id="veh13" type="veh_passenger" depart="30.45" departLane="best">
        <route edges="745660413#0 745660413#1 610739513#0 610739513#1 33301531 29023713 583307354 4392761#0 4392761#2 4392761#3 897211373#0 1091652283 897325985#1 1091652430 403882373 14858643#0 36801004#0 36801004#1 36801004#2 14858642#0 14858642#1 4690591#0"/>
    </vehicle>
    <vehicle id="veh14" type="veh_passenger" depart="32.80" departLane="best" departSpeed="max">
        <route edges="625259600 4441059#1 4422176 856293283 4441061 4441063 410939627 36801004#2 14858642#0 14858642#1 40487883 628755546#0 236306864#0 628755547#0 36786444#0 900443644#0 36786445#0 628757206#0 231940830#0 8384907 510492456"/>
    </vehicle>
    <vehicle id="veh15" type="veh_passenger" depart="35.14" departLane="best">
        <route edges="39642340#2 33301531 29023713 583307354 4392761#0 4392761#2 4392761#3 897211373#0 1091652283 897325985#1 1091652430 403882373 14858643#0 36801004#0 36801004#1 36801004#2 14858642#0 14858642#1 4690591#0 124862953 856297346"/>
    </vehicle>
    <vehicle id="veh16" type="veh_passenger" depart="37.48" departLane="best">
        <route edges="231483314 28275167 691307157 111691945 400062408 -31411680 -1238600634#0 -31411842 4730623 606127856 -28575360 -47896065 -47895849#2 -47895849#1 -13853658 -507534348#1 403882373 14858643#0 36801004#0 410939626 410939625"/>
    </vehicle>
    <vehicle id="veh17" type="veh_passenger" depart="39.82" departLane="best">
        <route edges="65583365#0 4730631#1 4730637#3 4730637#4 31520176 31520175 -1238600634#0 -31411842 4730623 606127856 -28575360 -47896065 -47895849#2 4726710#0 772942669 4726694#2 4726681#1 4726681#2 4726681#3"/>
    </vehicle>
    <vehicle id="veh19" type="veh_passenger" depart="44.51" departLane="best">
        <route edges="4730647#2 180020059#1 180020059#2 4726706#1 4726706#2 40493418 155433040 -5450858#1 510702678#1 -31445160#1 -31445160#0"/>
    </vehicle>
    <vehicle id="veh20" type="veh_passenger" depart="46.85" departLane="best" departSpeed="max">
        <route edges="13643508#1 1188284582#2 879483837 510481273#0 583307358 181218814#0 181218814#1 181218814#2 507818916 39642340#2 4726684 15089643 4726685#0 4726685#1 15089551 180020059#0 180020059#1 180020059#2 4726706#1 4726706#2 40493418 155433040 1111110395 155433041"/>
    </vehicle>
    <vehicle id="veh21" type="veh_passenger" depart="49.19" departLane="best" departSpeed="max">
        <route edges="-4726710#1 47895849#2 616545123 -832487280 832488060#1 4730619 8152035#0 628755546#0 236306864#0 33301663#0 13853661#0"/>
    </vehicle>
    <vehicle id="veh22" type="veh_passenger" depart="51.54" departLane="best">
        <route edges="-524150333#1 -524150347#1 -8382447#3 -8382447#0 -524150338#1 -524150342 -17073048#1 -244422544 -17670100#2 -17670100#1 150276011 150276013#0"/>
    </vehicle>
    <vehicle id="veh23" type="veh_passenger" depart="53.88" departLane="best">
        <route edges="220137286#0 220137286#2 8152036#0 180022161 4730636 96016135 13430690#0"/>
    </vehicle>
    <vehicle id="veh24" type="veh_passenger" depart="56.22" departLane="best">
        <route edges="14118784#1 -40493501#3 -40493501#2 -13853659#1 -400062405 -237344387 -34065519 31519076 -28575360 -47896065 -47895849#2 -47895849#1 -13853658 -507534348#1 403882373 5451918#0 31427257#0 31427257#2 14108392 856293281"/>
    </vehicle>
    <vehicle id="veh25" type="veh_passenger" depart="58.56" departLane="best">
        <route edges="4726710#0 772942669 4726694#2 4726681#1 4726679#1"/>
    </vehicle>
    <vehicle id="veh26" type="veh_passenger" depart="60.91" departLane="best">
        <route edges="1091652283 897325985#1 1091652430 403882373 14858643#0 36801004#0 36801004#1 36801004#2 14858642#0 14858642#1 40487883 628755546#0 236306864#0 628755547#0 36786444#0 900443644#0 36786445#0 628757206#0 231940830#0 8384907 510492456"/>
    </vehicle>
    <vehicle id="veh27" type="veh_passenger" depart="63.25" departLane="best">
        <route edges="1053478470 628782529#0 419709604#2 633077911 231945290#0 231945290#2 399914534 4730654 4726706#2 40493418 1150906866 31449010#0 31449007 231483314 31449245 265117578 14118780#1 14118780#2 14118780#3 14118780#4 8384918 8384893#0 19846527#1 8382421#0 265113917"/>
    </vehicle>
    <vehicle id="veh28" type="veh_passenger" depart="65.59" departLane="best" departSpeed="max">
        <route edges="963479927#0 4690591#0 36801001#1 36801001#2 687383599#0 5451917#0 5451917#0.13 1156329248 759157551 4726681#0 4726681#1 4726681#2 4726681#3 15089643 4726685#0 4726685#1 15089551 4726711#0 4726711#1"/>
    </vehicle>
    <vehicle id="veh29" type="veh_passenger" depart="67.93" departLane="best">
        <route edges="40493501#0 40493501#3 -14118784#1 -14118784#0 14118780#3 14118780#4 14118780#5 -8384914 1111106315 4730637#1"/>
    </vehicle>
    <vehicle id="veh30" type="veh_passenger" depart="70.28" departLane="best" departSpeed="max">
        <route edges="13654453 4726785#1 856293284 4726717 109398805 4441059#1 4422176 856293283 4441061 4441063 410939627 36801004#2 14858642#0 14858642#1 40487883 628755546#0 236306864#0"/>
    </vehicle>
    <vehicle id="veh32" type="veh_passenger" depart="74.96" departLane="best">
        <route edges="1198625656 -628757206#2 -36786445#2 231483339#0 220137286#0 8152037#0 8152037#1 31520175 31518959 237344387 4730627 31449018 4730651 239889169 231945290#2 231945290#3 117055115 137238867#2 4726785#1 856293284 4726717 109398805 4441059#1 4422176 856293283"/>
    </vehicle>
    <vehicle id="veh33" type="veh_passenger" depart="77.30" departLane="best">
        <route edges="8152056 4730637#4 31520176 31520175 -1238600634#0 -31411842 4730638 13853655#1 4730620 8152036#0 180022161"/>
    </vehicle>
    <vehicle id="veh34" type="veh_passenger" depart="79.65" departLane="best">
        <route edges="4726717 109398805 4441059#1 4422176 14108346 897325985#1 1091652430 403882373 5451918#0 31427257#0 31427257#2 31427257#3 31427257#4 31427257#7 591680761#0 4690638 30239233#0"/>
    </vehicle>
    <vehicle id="veh35" type="veh_passenger" depart="81.99" departLane="best" departSpeed="max">
        <route edges="839709051 124862960 36801001#2 687383599#0 5451917#0 5451917#0.13 1156329248 13853658 47895849#0 47895849#2 47896065 28575360 606127853"/>
    </vehicle>
    <vehicle id="veh36" type="veh_passenger" depart="84.33" departLane="best">
        <route edges="40493502 13853659#0 231483314 31449245 265117578 14118780#1 14118780#2 14118780#3 14118780#4 8384918 8384893#0 19846527#1 -47446166 150275991#0"/>
    </vehicle>
    <vehicle id="veh37" type="veh_passenger" depart="86.67" departLane="best">
        <route edges="4422176 856293283 4441061 4441063 410939627 36801004#2 14858642#0 14858642#1 40487883 628755546#0 236306864#0 628755547#0 36786444#0 900443644#0 36786445#0 628757206#0 231940830#0 510492454#0 -17073048#1 -244422544 -17670100#2 8384893#0"/>
    </vehicle>
    <vehicle id="veh38" type="veh_passenger" depart="89.02" departLane="best">
        <route edges="239889169 231945290#2 231945290#3 117055115 137238867#2 4726785#1 31389747 610739513#0 610739513#1 33301531 29023713 583307354 395800497#0 1196782590#0 13547697#0"/>
    </vehicle>
    <vehicle id="veh39" type="veh_passenger" depart="91.36" departLane="best" departSpeed="max">
        <route edges="963479927#0 4690591#0 36801001#1 36801001#2 687383599#0 31427257#0 31427257#2 14108392 856293281 13548014 393494868 4726737 856293285#0 117055114#0 117055114#1 117055114#2 1053478470 628782529#0 419709604#2 633077911 231945290#0 231945290#2 231945290#3 117055115 137238867#2 4726785#1 856293284 4726717 393494867"/>
    </vehicle>
    <vehicle id="veh40" type="veh_passenger" depart="93.70" departLane="best">
        <route edges="47895849#0 47895849#2 47896065 28575360 606127853 4726706#0 4726706#1 4726706#2 40493418 155433040 -5450858#1 510702678#1 -31445160#1 -31445160#0"/>
    </vehicle>
    <vehicle id="veh41" type="veh_passenger" depart="96.05" departLane="best">
        <route edges="-524150342 -628755543 8384907 510492456 1198625658 4730633 220137286#0 220137286#2 720012595#0 720012594#0 183251547 23179512#0 -13853658 759157551 4726681#0 4726681#1 4726681#2 4726681#3 15089643 4726685#0 4726685#1 4726694#0"/>
    </vehicle>
    <vehicle id="veh42" type="veh_passenger" depart="98.39" departLane="best" departSpeed="max">
        <route edges="625259600 4441059#1 4422176 14108346 897325985#1 1091652430 403882373 5451918#0 31427257#0 31427257#2 31427257#3 31427257#4"/>
    </vehicle>
    <vehicle id="veh43" type="veh_passenger" depart="100.73" departLane="best" departSpeed="max">
        <route edges="963479927#0 40487883 628755546#0 236306864#0 628755547#0 36786444#0 900443644#0 231483339#0 220137286#0 8152037#0 8152037#1 31520175 31411680 65583364"/>
    </vehicle>
    <vehicle id="veh44" type="veh_passenger" depart="103.07" departLane="best" departSpeed="max">
        <route edges="963479927#0 4690591#0 36801001#1 36801001#2 687383599#0 5451917#0 5451917#0.13 1156329248 13853658 47895849#0 47895849#2 47896065 28575360 606127853 4726706#0 4726706#1 4726706#2 40493418 155433040 -5450858#1 510702678#1 40493386 781742860#1"/>
    </vehicle>
    <vehicle id="veh45" type="veh_passenger" depart="105.42" departLane="best">
        <route edges="14118784#0 14118784#1 8384928 E1 31445160#0 31445160#1 -510702678#1 5450857#0 40493384#2 40493385#0 231945290#0 231945290#2 231945290#3 117055115 137238867#2 4726785#1 31389747 610739513#0 610739513#1 33301531 29023713 583307354 395800497#0 510481270"/>
    </vehicle>
    <vehicle id="veh46" type="veh_passenger" depart="107.76" departLane="best">
        <route edges="4730631#0 65583365#1 8384914 14118780#0 14118780#1 14118780#2 14118784#0 14118784#1 8384928 E1 31445160#0 31445160#1 40493386"/>
    </vehicle>
    <vehicle id="veh47" type="veh_passenger" depart="110.10" departLane="best">
        <route edges="14118784#1 8384928 E1 31445160#0 31445160#1 -510702678#1 5450857#0 40493384#2 40493385#0 231945290#0 231945290#2 231945290#3 231945290#4 4730647#0 4730647#1 4730644 4726711#1"/>
    </vehicle>
    <vehicle id="veh48" type="veh_passenger" depart="112.44" departLane="best">
        <route edges="-524150347#1 -8382447#3 -8382447#0 -524150338#1 -524150342 -628755543 8384907 510492456 1198625658 31448934#0"/>
    </vehicle>
    <vehicle id="veh49" type="veh_passenger" depart="114.79" departLane="best">
        <route edges="8152056 31448937#0 65583365#0 65583365#1 8384914 14118780#0 14118780#1 14118780#2 14118780#3 14118780#4 8384918 8384893#0 19846527#1 -47446166 150275991#0"/>
    </vehicle>
    <vehicle id="veh50" type="veh_passenger" depart="117.13" departLane="best" departSpeed="max">
        <route edges="34065519 237344387 4730627 31449018 4730651 239889169 231945290#2 231945290#3 117055115 137238867#2 4726785#1 856293284 4726717 109398805 4441059#1 4422176 14108346 897325985#1 1091652430"/>
    </vehicle>
    <vehicle id="veh51" type="veh_passenger" depart="119.47" departLane="best" departSpeed="max">
        <route edges="839709051 124862960 36801001#2 687383599#0 5451917#0 5451917#0.13 1156329248 13853658 47895849#0 47895849#2 47896065 28575360 606127855 627916937 4730616#1 4730616#2 13853655#0 13853655#1 4730620 8152036#0"/>
    </vehicle>
    <vehicle id="veh52" type="veh_passenger" depart="121.81" departLane="best">
        <route edges="150275992#0 -781742860#4 -781742860#3 -781742860#1 -781742860#0 -510702678#1 5450857#0 40493384#2 40493385#0 231945290#0 231945290#2 231945290#3 117055115 137238867#2 4726785#1 31389747 610739513#0 610739513#1 4726684 15089643 4726685#0 4726685#1 15089551 4726711#0"/>
    </vehicle>
    <vehicle id="veh53" type="veh_passenger" depart="124.16" departLane="best">
        <route edges="4441063 410939627 36801004#2 14858642#0 14858642#1 40487883 628755546#0 236306864#0 628755547#0 36786444#0 900443644#0 231483339#0 220137286#0 8152037#0 8152037#1 31520175 31411680 65583364 8152038 31449245 265117578 14118780#1 14118780#2 14118780#3 14118780#4 14118780#5 -8384914"/>
    </vehicle>
    <vehicle id="veh54" type="veh_passenger" depart="126.50" departLane="best">
        <route edges="583307357#0 583307357#1 583307357#2 507818916 39642340#2 4726684 15089643 4726685#0 4726685#1 15089551 180020059#0 180020059#1 180020059#2 4726706#1 4726706#2 40493418 1150906866 31449010#0 31449007 40493501#0"/>
    </vehicle>
    <vehicle id="veh55" type="veh_passenger" depart="128.84" departLane="best">
        <route edges="606127855 627916937 4730616#1 4730616#2 627916936#1 720012594#0 4730619 4730634 14858640 14858642#1 40487883"/>
    </vehicle>
    <vehicle id="veh56" type="veh_passenger" depart="131.18" departLane="best">
        <route edges="-150276003#1 136174723 8384905 8384902 450925440 244422544 552794577 510492456 1198625658 4730633 220137286#0 220137286#2 720012595#0 720012594#0 183251547 23179512#0 -13853658 -507534348#1 403882373 14858643#0 36801004#0 410939626 410939625 839709054"/>
    </vehicle>
    <vehicle id="veh57" type="veh_passenger" depart="133.53" departLane="best">
        <route edges="8152060#0 8152060#1 4730647#1 4730647#2 180020059#1 180020059#2 4726706#1 4726706#2 40493418 1150906866 31449010#0 31449007 231483314 31449245 4730631#0 65583365#1"/>
    </vehicle>
    <vehicle id="veh58" type="veh_passenger" depart="135.87" departLane="best">
        <route edges="150276011 150276013#0 150276013#1 567036033 -40493501#2 231483314 28275167 691307157 111691945 400062408 -31411680 -1238600634#0 -31411842 4730623 606127856 -31519076"/>
    </vehicle>
    <vehicle id="veh59" type="veh_passenger" depart="138.21" departLane="best">
        <route edges="-4730648#2 399914535 239889169 231945290#2 231945290#3 117055115 137238867#2 4726785#1 856293284 4726717 109398805 4441059#1 4422176 14108346 897325985#1 1091652430 403882373 14858643#0 36801004#0"/>
    </vehicle>
    <vehicle id="veh60" type="veh_passenger" depart="140.55" departLane="best">
        <route edges="-450925440 19846527#0 19846527#1 -47446166 19846377#0 414404581 70724347#1 40598677 1168195444 -781742860#4 -781742860#3 -781742860#1 -781742860#0 -510702678#1 5450857#0 40493384#2 40493385#0 231945290#0 231945290#2 231945290#3 117055115 137238867#2 4726785#1 31389747 610739513#0 610739513#1 33301531 583307357#0 583307357#1"/>
    </vehicle>
    <vehicle id="veh61" type="veh_passenger" depart="142.90" departLane="best">
        <route edges="583307357#2 507818916 39642340#2 4726684 15089643 4726685#0 4726685#1 15089551 4726712 606127854 606127855 627916937 4730616#1 4730616#2 13853655#0 13853655#1 4730620 8152036#0 180022161 4730636 96016135 13430690#0 -628755546#4"/>
    </vehicle>
    <vehicle id="veh62" type="veh_passenger" depart="145.24" departLane="best">
        <route edges="31518448 150275991#0 150275991#1 17670100#1 17670100#2 244422544 552794577 510492456 1198625658 4730633 220137286#0 220137286#2 720012595#0 720012594#0 183251547 23179512#0 -13853658 -507534348#1 403882373 14858643#0 36801004#0 410939626 410939625"/>
    </vehicle>
    <vehicle id="veh63" type="veh_passenger" depart="147.58" departLane="best">
        <route edges="14118780#2 14118780#3 14118780#4 8384918 17670100#2 244422544 552794577 510492456 1198625658 4730633 220137286#0 8152037#0"/>
    </vehicle>
    <vehicle id="veh64" type="veh_passenger" depart="149.92" departLane="best" departSpeed="max">
        <route edges="31411842 1238600634#0 31518959 -34065519 31519076 -28575360 -47896065 -47895849#2 -47895849#1 -13853658 -507534348#1 403882373 5451918#0 31427257#0 31427257#2 31427257#3 31427257#4 31427257#7 591680761#0 1196782590#0 13547697#0"/>
    </vehicle>
    <vehicle id="veh65" type="veh_passenger" depart="152.27" departLane="best">
        <route edges="399914534 4730654 4726706#2 40493418 1150906866 31449010#0 31449007 231483314 31449245 265117578 14118780#1 14118780#2 14118780#3 14118780#4 8384918 17670100#2 244422544 552794577 510492456"/>
    </vehicle>
    <vehicle id="veh66" type="veh_passenger" depart="154.61" departLane="best">
        <route edges="1168195444 -781742860#4 -781742860#3 -781742860#1 -781742860#0 -510702678#1 5450857#0 40493384#2 40493385#0 231945290#0 231945290#2 231945290#3 231945290#4 4730647#0 4730647#1 4730647#2 180020059#1 180020059#2"/>
    </vehicle>
    <vehicle id="veh67" type="veh_passenger" depart="156.95" departLane="best" departSpeed="max">
        <route edges="963479927#0 4690591#0 36801001#1 36801001#2 687383599#0 31427257#0 31427257#2 14108392 856293281 13548014 393494868 4726737"/>
    </vehicle>
    <vehicle id="veh68" type="veh_passenger" depart="159.29" departLane="best">
        <route edges="31427257#2 31427257#3 31427257#4 396062728#0"/>
    </vehicle>
    <vehicle id="veh69" type="veh_passenger" depart="161.64" departLane="best">
        <route edges="-628755546#4 -628755544#4 4690591#0 36801001#1 36801001#2 687383599#0 5451917#0 5451917#0.13 1156329248 13853658 47895849#0 47895849#2 47896065 28575360 606127855 627916937 4730616#1 4730616#2 13853655#0 13853655#1"/>
    </vehicle>
    <vehicle id="veh70" type="veh_passenger" depart="163.98" departLane="best">
        <route edges="180020059#0 180020059#1 180020059#2 4726706#1 4726706#2 4730651 239889169 231945290#2 231945290#3 117055115 137238867#2 4726785#1 856293284 4726717 109398805 4441059#1 4422176 856293283 4441061"/>
    </vehicle>
    <vehicle id="veh71" type="veh_passenger" depart="166.32" departLane="best" departSpeed="max">
        <route edges="13654453 4726785#1 31389747 610739513#0 610739513#1 33301531 29023713 583307354 395800497#0 1196782590#0 13547697#0"/>
    </vehicle>
    <vehicle id="veh72" type="veh_passenger" depart="168.66" departLane="best" departSpeed="max">
        <route edges="-4726710#1 47895849#2 47896065 28575360 606127853 4726706#0"/>
    </vehicle>
    <vehicle id="veh73" type="veh_passenger" depart="171.01" departLane="best" departSpeed="max">
        <route edges="13654453 4726785#1 31389747 610739513#0 610739513#1 4726684 15089643 4726685#0 4726685#1 15089551 4726712 606127854 606127855 627916937 4730616#1 4730616#2 13853655#0 13853655#1 13853655#2 31520175 31411680 65583364 8152038 31449245 265117578 14118780#1 14118780#2 14118780#3 14118780#4 8384918 8384893#0 8384893#1 8384905"/>
    </vehicle>
    <vehicle id="veh74" type="veh_passenger" depart="173.35" departLane="best">
        <route edges="781742860#1 7682864#1 7682875 327412184 155433041 31449010#0 31449007 231483314 31449245 265117578 14118780#1 14118780#2 14118780#3 14118780#4 8384918 17670100#2 244422544 17073048#0 -628755543 -231940830#2 -628757206#2 -36786445#2"/>
    </vehicle>
    <vehicle id="veh75" type="veh_passenger" depart="175.69" departLane="best" departSpeed="max">
        <route edges="13654453 4726785#1 31389747 610739513#0 610739513#1 4726684 15089643 4726685#0 4726685#1 15089551 180020059#0 180020059#1 180020059#2 4726706#1 4730624"/>
    </vehicle>
    <vehicle id="veh76" type="veh_passenger" depart="178.04" departLane="best">
        <route edges="1238600634#0 31411680 65583364 8152038 31449245 265117578 14118780#1 14118780#2 14118780#3 14118780#4 8384918 17670100#2 244422544 17073048#0 -628755543 -231940830#2 -628757206#2"/>
    </vehicle>
    <vehicle id="veh77" type="veh_passenger" depart="180.38" departLane="best">
        <route edges="31512978#1 4392761#3 897211373#0 47461591#0 4726681#1 4726681#2 4726681#3 15089643 430855719 1024105863 33301560 745660413#1 610739513#0 610739513#1"/>
    </vehicle>
    <vehicle id="veh78" type="veh_passenger" depart="182.72" departLane="best" departSpeed="max">
        <route edges="625259600 4441059#1 4422176 14108346 897325985#1 1091652430 403882373 5451918#0 5451917#0 5451917#0.13 1156329248"/>
    </vehicle>
    <vehicle id="veh79" type="veh_passenger" depart="185.06" departLane="best" departSpeed="max">
        <route edges="31411842 1238600634#0 31518959 237344387 4730627 31449018 4730651 450186404 8152060#0 8152060#1 399914536 745660413#0 745660413#1 610739513#0 610739513#1 33301531"/>
    </vehicle>
    <vehicle id="veh80" type="veh_passenger" depart="187.41" departLane="best">
        <route edges="510481273#0 583307358 181218814#0 181218814#1 181218814#2 507818916 39642340#2 4726684 15089643 4726685#0 4726685#1 15089551 4726712 606127854 606127855 627916937 4730616#1 4730616#2 13853655#0 13853655#1 13853655#2 31520175 31411680 65583364 231483312 65583365#0 4730631#1"/>
    </vehicle>
    <vehicle id="veh81" type="veh_passenger" depart="189.75" departLane="best" departSpeed="max">
        <route edges="963479927#0 4690591#0 36801001#1 36801001#2 687383599#0 5451917#0 5451917#0.13 1156329248 759157551 4726681#0 4726681#1 4726681#2 4726681#3 15089643 4726685#0 4726685#1 616545124 606502609 -47896065 -47895849#2"/>
    </vehicle>
    <vehicle id="veh83" type="veh_passenger" depart="194.43" departLane="best" departSpeed="max">
        <route edges="1156337042 150275999#2 70724347#1 40598677 150276015 -40493501#4 -40493501#3 -40493501#2 231483314 31449245"/>
    </vehicle>
    <vehicle id="veh84" type="veh_passenger" depart="196.78" departLane="best" departSpeed="max">
        <route edges="31411842 1238600634#0 31411680 65583364 8152038 567036034 567036033 40493501#3 40493501#4 150276002 150276013#0"/>
    </vehicle>
    <vehicle id="veh85" type="veh_passenger" depart="199.12" departLane="best">
        <route edges="13853655#1 4730620 720012595#0 720012594#0 183251547 23179512#0 -13853658 -507534348#1 403882373 14858643#0 36801004#0 410939626 410939625 839709054"/>
    </vehicle>
    <vehicle id="veh86" type="veh_passenger" depart="201.46" departLane="best">
        <route edges="31427257#3 31427257#4 396062728#0 897211373#0 47461591#0 4726681#1 4726681#2 4726681#3 15089643 4726685#0 4726685#1 15089551 180020059#0 180020059#1 180020059#2 4726706#1 4726706#2 40493418 155433040 -5450858#1 510702678#1 40493386 781742860#1"/>
    </vehicle>
    <vehicle id="veh87" type="veh_passenger" depart="203.80" departLane="best">
        <route edges="40493385#0 231945290#0 231945290#2 231945290#3 231945290#4 231945290#5 745660413#0 -33301560 -1024105863 -4726711#1 -4726711#0 4726712 606127854 -31519076"/>
    </vehicle>
    <vehicle id="veh88" type="veh_passenger" depart="206.15" departLane="best">
        <route edges="E1 31445160#0 31445160#1 -510702678#1 5450857#0 40493384#2 40493385#0 231945290#0 231945290#2 231945290#3 117055115 137238867#2 4726785#1 856293284 4726717 109398805 4441059#1 4422176 856293283 4441061 4441063 410939627 36801004#2 14858642#0 14858642#1 4690591#0 36801001#1 36801001#2 687383599#0"/>
    </vehicle>
    <vehicle id="veh89" type="veh_passenger" depart="208.49" departLane="best">
        <route edges="-327412184 31445160#0 31445160#1 -510702678#1 5450857#0 40493384#2 40493385#0 231945290#0 231945290#2 231945290#3 117055115 137238867#2 4726785#1 31389747 610739513#0 610739513#1 33301531 29023713 583307354 395800497#0 1196782590#0 13547697#0"/>
    </vehicle>
    <vehicle id="veh90" type="veh_passenger" depart="210.83" departLane="best">
        <route edges="244422544 552794577 510492456 1198625658 31448934#0 31448934#1 31520176 31520175 -1238600634#0 -31411842 4730623 606127856 -31519076"/>
    </vehicle>