<?xml version="1.0" encoding="UTF-8"?>

<!-- generated on 2024-05-21 17:59:32.873607 by randomTrips.py v1_19_0+0000-baa66a0f364
<configuration>
    <net-file value="C:\Users\moise\PycharmProjects\pythonProjectDavide\Sumo\osm.net.xml.gz"/>
    <output-trip-file value="C:\Users\moise\PycharmProjects\pythonProjectDavide\Sumo\osm.passenger.trips.xml"/>
    <route-file value="C:\Users\moise\PycharmProjects\pythonProjectDavide\Sumo\osm.passenger.rou.xml"/>
    <fringe-factor value="30"/>
    <remove-loops value="True"/>
    <validate value="True"/>
    <end value="36000.0"/>
    <insertion-rate value="2000.0"/>
</configuration>
-->

<!-- generated on 2024-05-21 17:59:32 by Eclipse SUMO duarouter Version 1.19.0
<configuration xmlns:xsi="http://www.w3.org/2001/XMLSchema-instance" xsi:noNamespaceSchemaLocation="http://sumo.dlr.de/xsd/duarouterConfiguration.xsd">

    <input>
        <net-file value="C:\Users\moise\PycharmProjects\pythonProjectDavide\Sumo\osm.net.xml.gz"/>
        <route-files value="C:\Users\moise\PycharmProjects\pythonProjectDavide\Sumo\osm.passenger.trips.xml"/>
    </input>

    <output>
        <output-file value="C:\Users\moise\PycharmProjects\pythonProjectDavide\Sumo\osm.passenger.trips.xml.tmp"/>
        <alternatives-output value="NUL"/>
        <write-trips value="true"/>
    </output>

    <processing>
        <remove-loops value="true"/>
    </processing>

    <time>
        <begin value="0.0"/>
        <end value="36000.0"/>
    </time>

    <report>
        <no-warnings value="true"/>
        <ignore-errors value="true"/>
        <no-step-log value="true"/>
    </report>

</configuration>
-->

<routes xmlns:xsi="http://www.w3.org/2001/XMLSchema-instance" xsi:noNamespaceSchemaLocation="http://sumo.dlr.de/xsd/routes_file.xsd">
    <trip id="0" depart="0.00" from="4730616#1" to="-236306864#4"/>
    <trip id="1" depart="1.80" from="137238867#0" to="117055114#0"/>
    <trip id="2" depart="3.60" from="552794577" to="4726717"/>
    <trip id="3" depart="5.40" from="8384893#1" to="-524150338#1"/>
    <trip id="4" depart="7.20" from="29000804.26" to="-28575360"/>
    <trip id="5" depart="9.00" from="1188284582#2" to="31449018"/>
    <trip id="6" depart="10.80" from="28575360" to="109398805"/>
    <trip id="7" depart="12.60" from="4730631#0" to="393494867"/>
    <trip id="8" depart="14.40" from="1188284582#2" to="395073288"/>
    <trip id="9" depart="16.20" from="628782529#0" to="-13853659#1"/>
    <trip id="10" depart="18.00" from="628782529#0" to="4730636"/>
    <trip id="11" depart="19.80" from="14858868" to="1053478472#3"/>
    <trip id="12" depart="21.60" from="96016135" to="14858640"/>
    <trip id="13" depart="23.40" from="40493418" to="-524150338#1"/>
    <trip id="14" depart="25.20" from="65583365#1" to="40487883"/>
    <trip id="15" depart="27.00" from="628782529#0" to="510481270"/>
    <trip id="16" depart="28.80" from="327412184" to="856293285#1"/>
    <trip id="17" depart="30.60" from="181218814#1" to="393494867"/>
    <trip id="18" depart="32.40" from="628782529#0" to="410939625"/>
    <trip id="19" depart="34.20" from="7682864#2" to="393494867"/>
    <trip id="20" depart="36.00" from="17073048#0" to="-36786445#2"/>
    <trip id="21" depart="37.80" from="1198625656" to="1196782590#0"/>
    <trip id="22" depart="39.60" from="-4726710#1" to="117055114#0"/>
    <trip id="23" depart="41.40" from="-524150326#0" to="1196782590#0"/>
    <trip id="24" depart="43.20" from="4726717" to="158331590"/>
    <trip id="25" depart="45.00" from="180020059#1" to="1156337042"/>
    <trip id="26" depart="46.80" from="13654453" to="856293283"/>
    <trip id="27" depart="48.60" from="4730624" to="40493418"/>
    <trip id="28" depart="50.40" from="1041085657" to="510481270"/>
    <trip id="29" depart="52.20" from="-96016135" to="180156396#0"/>
    <trip id="33" depart="59.40" from="1198625658" to="31411680"/>
    <trip id="34" depart="61.20" from="14858868" to="1196782590#0"/>
    <trip id="35" depart="63.00" from="1188284582#2" to="856293285#1"/>
    <trip id="36" depart="64.80" from="8152038" to="13853655#0"/>
    <trip id="37" depart="66.60" from="4730636" to="19846527#0"/>
    <trip id="38" depart="68.40" from="839709051" to="30239233#0"/>
    <trip id="39" depart="70.20" from="13654453" to="117055114#0"/>
    <trip id="40" depart="72.00" from="395800497#0" to="1196782590#0"/>
    <trip id="41" depart="73.80" from="410939625" to="839709054"/>
    <trip id="42" depart="75.60" from="231483339#0" to="117055114#0"/>
    <trip id="43" depart="77.40" from="963479927#0" to="31512978#0"/>
    <trip id="44" depart="79.20" from="-4730648#1" to="-400062405"/>
    <trip id="45" depart="81.00" from="-628755544#4" to="4392761#0"/>
    <trip id="46" depart="82.80" from="625259600" to="237344387"/>
    <trip id="47" depart="84.60" from="-4726710#1" to="180156396#1"/>
    <trip id="48" depart="86.40" from="963479927#0" to="36801001#1"/>
    <trip id="49" depart="88.20" from="963479927#0" to="8152056"/>
    <trip id="50" depart="90.00" from="-14858868" to="-47446166"/>
    <trip id="51" depart="91.80" from="507818916" to="37535329#0"/>
    <trip id="52" depart="93.60" from="13654453" to="4441063"/>
    <trip id="53" depart="95.40" from="-628755547#5" to="181218814#0"/>
    <trip id="54" depart="97.20" from="31389787#2" to="856293285#1"/>
    <trip id="55" depart="99.00" from="8152038" to="1196782590#0"/>
    <trip id="56" depart="100.80" from="31411842" to="1053478472#3"/>
    <trip id="59" depart="106.20" from="4690591#0" to="1053478472#3"/>
    <trip id="60" depart="108.00" from="625259600" to="377719664"/>
    <trip id="61" depart="109.80" from="625259600" to="36801001#1"/>
    <trip id="62" depart="111.60" from="-1024105863" to="13853661#1"/>
    <trip id="63" depart="113.40" from="450925440" to="839709054"/>
    <trip id="64" depart="115.20" from="8152060#0" to="693295225"/>
    <trip id="65" depart="117.00" from="14858868" to="-4730648#1"/>
    <trip id="66" depart="118.80" from="8152056" to="856293285#1"/>
    <trip id="67" depart="120.60" from="-4726710#1" to="31427257#0"/>
    <trip id="68" depart="122.40" from="-4726710#1" to="606127854"/>
    <trip id="69" depart="124.20" from="625259600" to="628757206#0"/>
    <trip id="70" depart="126.00" from="31411842" to="393494867"/>
    <trip id="72" depart="129.60" from="29023713" to="1168195444"/>
    <trip id="73" depart="131.40" from="33301560" to="510481270"/>
    <trip id="74" depart="133.20" from="1188284582#2" to="137238867#0"/>
    <trip id="75" depart="135.00" from="963479927#0" to="4726679#1"/>
    <trip id="77" depart="138.60" from="-832487280" to="117055114#0"/>
    <trip id="78" depart="140.40" from="14858868" to="395073288"/>
    <trip id="79" depart="142.20" from="1238600634#0" to="117055114#0"/>
    <trip id="80" depart="144.00" from="-4726710#1" to="4392761#3"/>
    <trip id="81" depart="145.80" from="1198625658" to="839709054"/>
    <trip id="82" depart="147.60" from="759157551" to="-524150326#0"/>
    <trip id="83" depart="149.40" from="13654453" to="4726706#2"/>
    <trip id="84" depart="151.20" from="1188284582#2" to="-781742860#1"/>
    <trip id="85" depart="153.00" from="839709051" to="393494867"/>
    <trip id="86" depart="154.80" from="31411842" to="625259599"/>
    <trip id="87" depart="156.60" from="628782529#0" to="1053478472#3"/>
    <trip id="88" depart="158.40" from="47896065" to="28275167"/>
    <trip id="90" depart="162.00" from="524150338#0" to="4726711#1"/>
    <trip id="91" depart="163.80" from="963479927#0" to="-17073048#1"/>
    <trip id="92" depart="165.60" from="231945290#0" to="14858642#1"/>
    <trip id="93" depart="167.40" from="7682864#2" to="117055114#0"/>
    <trip id="94" depart="169.20" from="1188284582#2" to="30239233#0"/>
    <trip id="95" depart="171.00" from="29000804.26" to="1196782590#0"/>
    <trip id="96" depart="172.80" from="13654453" to="839709054"/>
    <trip id="98" depart="176.40" from="36801004#1" to="-40493501#4"/>
    <trip id="99" depart="178.20" from="E1" to="720012595#0"/>
    <trip id="100" depart="180.00" from="963479927#0" to="839709054"/>
    <trip id="101" depart="181.80" from="687383599#0" to="1053478472#3"/>
    <trip id="102" depart="183.60" from="31411842" to="117055114#0"/>
    <trip id="103" depart="185.40" from="23179512#0" to="-4730648#1"/>
    <trip id="105" depart="189.00" from="13654453" to="625259599"/>
    <trip id="107" depart="192.60" from="96016135" to="900443644#0"/>
    <trip id="108" depart="194.40" from="377719665" to="4730651"/>
    <trip id="109" depart="196.20" from="-96016135" to="1196782590#0"/>
    <trip id="110" depart="198.00" from="963479927#0" to="393494867"/>
    <trip id="111" depart="199.80" from="34065519" to="567036033"/>
    <trip id="112" depart="201.60" from="-4726710#1" to="393494867"/>
    <trip id="113" depart="203.40" from="31411842" to="8152033#0"/>
    <trip id="114" depart="205.20" from="-96016135" to="856293285#1"/>
    <trip id="115" depart="207.00" from="-4726710#1" to="1053478472#3"/>
    <trip id="116" depart="208.80" from="4392761#3" to="4726712"/>
    <trip id="118" depart="212.40" from="8384893#0" to="117055114#0"/>
    <trip id="119" depart="214.20" from="4392761#2" to="410939626"/>
    <trip id="120" depart="216.00" from="28275167" to="393494867"/>
    <trip id="121" depart="217.80" from="31449007" to="856293281"/>
    <trip id="122" depart="219.60" from="1188284582#2" to="4730649"/>
    <trip id="123" depart="221.40" from="13654453" to="19846527#0"/>
    <trip id="124" depart="223.20" from="4730649" to="1196782590#0"/>
    <trip id="125" depart="225.00" from="14858868" to="583307357#0"/>
    <trip id="126" depart="226.80" from="-4726710#1" to="30239233#0"/>
    <trip id="127" depart="228.60" from="963479927#0" to="96016135"/>
    <trip id="128" depart="230.40" from="-4726710#1" to="117055114#0"/>
    <trip id="129" depart="232.20" from="13654453" to="839709054"/>
    <trip id="130" depart="234.00" from="8152060#1" to="8384902"/>
    <trip id="131" depart="235.80" from="180020059#0" to="1053478472#3"/>
    <trip id="132" depart="237.60" from="628782529#0" to="4730637#3"/>
    <trip id="134" depart="241.20" from="4730634" to="-13853663"/>
    <trip id="135" depart="243.00" from="628782529#0" to="1196782590#0"/>
    <trip id="136" depart="244.80" from="4730644" to="856293284"/>
    <trip id="137" depart="246.60" from="-96016135" to="-17073048#1"/>
    <trip id="138" depart="248.40" from="-5450858#1" to="393494867"/>
    <trip id="139" depart="250.20" from="13654453" to="40493384#2"/>
    <trip id="140" depart="252.00" from="524150338#0" to="1111110395"/>
    <trip id="141" depart="253.80" from="4726712" to="1196782590#0"/>
    <trip id="142" depart="255.60" from="31411842" to="839709054"/>
    <trip id="143" depart="257.40" from="65583365#0" to="-524150338#1"/>
    <trip id="145" depart="261.00" from="-1238600634#0" to="625259599"/>
    <trip id="147" depart="264.60" from="583307357#0" to="393494867"/>
    <trip id="149" depart="268.20" from="-4726710#1" to="8384914"/>
    <trip id="150" depart="270.00" from="839709051" to="393494867"/>
    <trip id="151" depart="271.80" from="628782529#0" to="393494867"/>
    <trip id="152" depart="273.60" from="-96016135" to="628757206#0"/>
    <trip id="153" depart="275.40" from="14858868" to="839709054"/>
    <trip id="154" depart="277.20" from="627916937" to="8152038"/>
    <trip id="155" depart="279.00" from="8384918" to="1156337042"/>
    <trip id="156" depart="280.80" from="13654453" to="-524150338#1"/>
    <trip id="157" depart="282.60" from="625259600" to="8384914"/>
    <trip id="158" depart="284.40" from="231945290#3" to="410939626"/>
    <trip id="159" depart="286.20" from="-96016135" to="839709054"/>
    <trip id="160" depart="288.00" from="772942669" to="856293285#1"/>
    <trip id="161" depart="289.80" from="628782529#0" to="8384905"/>
    <trip id="163" depart="293.40" from="14858868" to="839709054"/>
    <trip id="164" depart="295.20" from="628782529#0" to="8152060#1"/>
    <trip id="165" depart="297.00" from="628782529#0" to="1196782590#0"/>
    <trip id="166" depart="298.80" from="625259600" to="-17073048#1"/>
    <trip id="167" depart="300.60" from="8152036#0" to="8152037#1"/>
    <trip id="168" depart="302.40" from="1188284582#2" to="628755547#0"/>
    <trip id="170" depart="306.00" from="627916936#1" to="117055114#0"/>
    <trip id="171" depart="307.80" from="-244422544" to="1053478472#3"/>
    <trip id="172" depart="309.60" from="14858868" to="8152060#1"/>
    <trip id="173" depart="311.40" from="963479927#0" to="1196782590#0"/>
    <trip id="174" depart="313.20" from="4730616#2" to="21766158#0"/>
    <trip id="175" depart="315.00" from="963479927#0" to="36801004#2"/>
    <trip id="176" depart="316.80" from="839709051" to="-17073048#1"/>
    <trip id="177" depart="318.60" from="963479927#0" to="1053478472#3"/>
    <trip id="178" depart="320.40" from="963479927#0" to="1196782590#0"/>
    <trip id="179" depart="322.20" from="-628755543" to="29023713"/>
    <trip id="180" depart="324.00" from="524150338#0" to="137238867#2"/>
    <trip id="181" depart="325.80" from="450186404" to="31518448"/>
    <trip id="182" depart="327.60" from="183370113#2" to="393494867"/>
    <trip id="183" depart="329.40" from="13654453" to="4730647#0"/>
    <trip id="184" depart="331.20" from="-1106583870" to="839709054"/>
    <trip id="185" depart="333.00" from="39642340#2" to="4726706#2"/>
    <trip id="186" depart="334.80" from="583307357#0" to="4726710#0"/>
    <trip id="187" depart="336.60" from="16233735#0" to="-524150326#0"/>
    <trip id="188" depart="338.40" from="4730647#0" to="14118783"/>
    <trip id="189" depart="340.20" from="14858868" to="781742860#1"/>
    <trip id="190" depart="342.00" from="524150338#0" to="1196782590#0"/>
    <trip id="191" depart="343.80" from="14858868" to="231483339#0"/>
    <trip id="192" depart="345.60" from="231940830#0" to="1196782590#0"/>
    <trip id="193" depart="347.40" from="-875772621#0" to="33301663#0"/>
    <trip id="194" depart="349.20" from="839709051" to="4726737"/>
    <trip id="195" depart="351.00" from="839709051" to="40493502"/>
    <trip id="196" depart="352.80" from="14858643#0" to="393494867"/>
    <trip id="197" depart="354.60" from="-1024105863" to="1196782590#0"/>
    <trip id="199" depart="358.20" from="4730634" to="30239233#0"/>
    <trip id="200" depart="360.00" from="31389787#2" to="117055114#0"/>
    <trip id="201" depart="361.80" from="31411842" to="839709054"/>
    <trip id="202" depart="363.60" from="627916936#1" to="1053478472#3"/>
    <trip id="203" depart="365.40" from="-4726710#1" to="606127853"/>
    <trip id="204" depart="367.20" from="4726711#1" to="14118785#1"/>
    <trip id="205" depart="369.00" from="628782529#0" to="583307357#0"/>
    <trip id="206" depart="370.80" from="4730651" to="117055114#0"/>
    <trip id="207" depart="372.60" from="1188284582#2" to="236306864#0"/>
    <trip id="208" depart="374.40" from="13654453" to="30239233#0"/>
    <trip id="209" depart="376.20" from="691307157" to="-524150338#1"/>
    <trip id="210" depart="378.00" from="258274084" to="4392761#3"/>
    <trip id="211" depart="379.80" from="1188284582#2" to="4730634"/>
    <trip id="212" depart="381.60" from="31411842" to="117055114#0"/>
    <trip id="213" depart="383.40" from="4730636" to="-13853658"/>
    <trip id="214" depart="385.20" from="610739513#0" to="625259599"/>
    <trip id="215" depart="387.00" from="-5450858#1" to="244422544"/>
    <trip id="216" depart="388.80" from="109398805" to="856293285#1"/>
    <trip id="217" depart="390.60" from="31448934#1" to="-40493501#3"/>
    <trip id="218" depart="392.40" from="13654453" to="781742860#1"/>
    <trip id="221" depart="397.80" from="4392761#3" to="856293285#1"/>
    <trip id="222" depart="399.60" from="8384893#0" to="40493501#3"/>
    <trip id="223" depart="401.40" from="524150338#0" to="31449010#0"/>
    <trip id="224" depart="403.20" from="628782529#0" to="393494867"/>
    <trip id="225" depart="405.00" from="8384914" to="5450860#0"/>
    <trip id="226" depart="406.80" from="31411842" to="1196782590#0"/>
    <trip id="227" depart="408.60" from="13654453" to="4441061"/>
    <trip id="228" depart="410.40" from="625259600" to="33301531"/>
    <trip id="229" depart="412.20" from="4726706#0" to="1196782590#0"/>
    <trip id="230" depart="414.00" from="-4726710#1" to="1196782590#0"/>
    <trip id="231" depart="415.80" from="13654453" to="13853658"/>
    <trip id="232" depart="417.60" from="236306864#0" to="-832629331#0"/>
    <trip id="233" depart="419.40" from="1238600634#0" to="4730631#1"/>
    <trip id="234" depart="421.20" from="524150338#0" to="-47895849#2"/>
    <trip id="235" depart="423.00" from="231945290#3" to="393494867"/>
    <trip id="236" depart="424.80" from="265113917" to="1150906866"/>
    <trip id="237" depart="426.60" from="28575360" to="839709054"/>
    <trip id="238" depart="428.40" from="40598677" to="4730633"/>
    <trip id="239" depart="430.20" from="745660413#0" to="616545123"/>
    <trip id="240" depart="432.00" from="181218814#2" to="-13853658"/>
    <trip id="241" depart="433.80" from="150276013#0" to="583307357#1"/>
    <trip id="242" depart="435.60" from="70724347#1" to="856293285#1"/>
    <trip id="243" depart="437.40" from="8152038" to="567036033"/>
    <trip id="244" depart="439.20" from="36801001#1" to="40487883"/>
    <trip id="245" depart="441.00" from="1188284582#2" to="117055114#0"/>
    <trip id="247" depart="444.60" from="14858868" to="4726785#1"/>
    <trip id="248" depart="446.40" from="231945290#2" to="1053478472#3"/>
    <trip id="249" depart="448.20" from="31411842" to="-628757206#2"/>
    <trip id="250" depart="450.00" from="4726685#1" to="-244422544"/>
    <trip id="251" depart="451.80" from="220137286#2" to="393494867"/>
    <trip id="252" depart="453.60" from="28575360" to="450186404"/>
    <trip id="253" depart="455.40" from="-96016135" to="30239233#0"/>
    <trip id="254" depart="457.20" from="-4726710#1" to="180022161"/>
    <trip id="255" depart="459.00" from="1188284582#2" to="14108346"/>
    <trip id="256" depart="460.80" from="625259600" to="180022161"/>
    <trip id="257" depart="462.60" from="610739513#1" to="693295225"/>
    <trip id="258" depart="464.40" from="13654453" to="-524150338#1"/>
    <trip id="259" depart="466.20" from="-17670100#2" to="377719664"/>
    <trip id="260" depart="468.00" from="E1" to="150276003#0"/>
    <trip id="261" depart="469.80" from="4730631#0" to="625259599"/>
    <trip id="262" depart="471.60" from="4730631#1" to="583307357#2"/>
    <trip id="263" depart="473.40" from="875773546" to="109398805"/>
    <trip id="264" depart="475.20" from="-231940830#2" to="1053478472#3"/>
    <trip id="265" depart="477.00" from="-8384914" to="4726706#2"/>
    <trip id="266" depart="478.80" from="39642340#2" to="117055114#0"/>
    <trip id="267" depart="480.60" from="524150338#0" to="616545124"/>
    <trip id="268" depart="482.40" from="-96016135" to="40493385#0"/>
    <trip id="269" depart="484.20" from="606127853" to="-524150338#1"/>
    <trip id="270" depart="486.00" from="628782529#0" to="856293285#1"/>
    <trip id="271" depart="487.80" from="-628755543" to="-237344387"/>
    <trip id="272" depart="489.60" from="14858868" to="4726737"/>
    <trip id="273" depart="491.40" from="96016144" to="19846527#0"/>
    <trip id="274" depart="493.20" from="524150338#0" to="-524150338#1"/>
    <trip id="275" depart="495.00" from="524150338#0" to="4392761#0"/>
    <trip id="276" depart="496.80" from="-524150326#0" to="625259599"/>
    <trip id="277" depart="498.60" from="691307157" to="400062408"/>
    <trip id="278" depart="500.40" from="-832487280" to="856293285#1"/>
    <trip id="279" depart="502.20" from="625259600" to="150275999#2"/>
    <trip id="281" depart="505.80" from="150275991#1" to="14858643#0"/>
    <trip id="282" depart="507.60" from="687383599#0" to="37535329#0"/>
    <trip id="283" depart="509.40" from="5450857#0" to="856293285#1"/>
    <trip id="284" depart="511.20" from="4726717" to="687383599#0"/>
    <trip id="285" depart="513.00" from="524150338#0" to="29023713"/>
    <trip id="286" depart="514.80" from="5450860#0" to="856293285#1"/>
    <trip id="287" depart="516.60" from="13654453" to="625259599"/>
    <trip id="288" depart="518.40" from="39642340#2" to="31411680"/>
    <trip id="290" depart="522.00" from="13654453" to="781742860#4"/>
    <trip id="291" depart="523.80" from="628782529#0" to="-524150338#1"/>
    <trip id="292" depart="525.60" from="832488060#1" to="117055114#0"/>
    <trip id="294" depart="529.20" from="181218814#1" to="-265113917"/>
    <trip id="295" depart="531.00" from="691307157" to="1053478472#3"/>
    <trip id="296" depart="532.80" from="1188284582#2" to="625259599"/>
    <trip id="297" depart="534.60" from="14858868" to="8384905"/>
    <trip id="298" depart="536.40" from="524150338#0" to="1196782590#0"/>
    <trip id="299" depart="538.20" from="-14118784#1" to="856293285#1"/>
    <trip id="300" depart="540.00" from="-4726710#1" to="47446166"/>
    <trip id="301" depart="541.80" from="31411842" to="591680761#0"/>
    <trip id="302" depart="543.60" from="17073048#0" to="4690591#0"/>
    <trip id="303" depart="545.40" from="31411842" to="625259599"/>
    <trip id="304" depart="547.20" from="-47446166" to="117055114#0"/>
    <trip id="305" depart="549.00" from="524150338#0" to="-1238600634#0"/>
    <trip id="306" depart="550.80" from="14118784#1" to="30239233#0"/>
    <trip id="308" depart="554.40" from="583307358" to="14118784#0"/>
    <trip id="309" depart="556.20" from="524150338#0" to="1196782590#0"/>
    <trip id="310" depart="558.00" from="13654453" to="-5450858#1"/>
    <trip id="312" depart="561.60" from="31520176" to="610739513#0"/>
    <trip id="313" depart="563.40" from="1156337042" to="117055114#0"/>
    <trip id="314" depart="565.20" from="31411842" to="47895849#2"/>
    <trip id="315" depart="567.00" from="963479927#0" to="34065519"/>
    <trip id="316" depart="568.80" from="13853659#0" to="-524150338#1"/>
    <trip id="317" depart="570.60" from="1188284582#2" to="117055114#0"/>
    <trip id="318" depart="572.40" from="1111110395" to="-150276003#0"/>
    <trip id="319" depart="574.20" from="31520175" to="1196782590#0"/>
    <trip id="320" depart="576.00" from="963479927#0" to="393494867"/>
    <trip id="321" depart="577.80" from="17073048#0" to="-628755547#5"/>
    <trip id="322" depart="579.60" from="781742860#4" to="31427257#4"/>
    <trip id="323" depart="581.40" from="8152036#0" to="393494867"/>
    <trip id="324" depart="583.20" from="31411842" to="30239233#0"/>
    <trip id="325" depart="585.00" from="1156337042" to="-40493501#4"/>
    <trip id="326" depart="586.80" from="839709051" to="30239233#0"/>
    <trip id="327" depart="588.60" from="628782529#0" to="220137286#0"/>
    <trip id="328" depart="590.40" from="-4726710#1" to="4392761#2"/>
    <trip id="329" depart="592.20" from="-4726710#1" to="1041085657"/>
    <trip id="330" depart="594.00" from="396062728#0" to="1198625658"/>
    <trip id="331" depart="595.80" from="963479927#0" to="-524150347#1"/>
    <trip id="332" depart="597.60" from="625259600" to="40493385#0"/>
    <trip id="333" depart="599.40" from="625259600" to="117055114#0"/>
    <trip id="334" depart="601.20" from="31449007" to="30239233#0"/>
    <trip id="336" depart="604.80" from="963479927#0" to="-1238600634#0"/>
    <trip id="337" depart="606.60" from="4726685#0" to="40493418"/>
    <trip id="338" depart="608.40" from="583307354" to="856293285#1"/>
    <trip id="339" depart="610.20" from="1188284582#2" to="1168195444"/>
    <trip id="340" depart="612.00" from="4730637#4" to="1053478472#3"/>
    <trip id="341" depart="613.80" from="1091652283" to="-17073048#1"/>
    <trip id="342" depart="615.60" from="-1238600634#0" to="30239233#0"/>
    <trip id="343" depart="617.40" from="4392761#2" to="1196782590#0"/>
    <trip id="344" depart="619.20" from="13430690#0" to="4730644"/>
    <trip id="345" depart="621.00" from="524150338#0" to="30239233#0"/>
    <trip id="346" depart="622.80" from="510492456" to="839709054"/>
    <trip id="347" depart="624.60" from="625259600" to="419709604#2"/>
    <trip id="348" depart="626.40" from="4730637#4" to="856293281"/>
    <trip id="349" depart="628.20" from="4726785#1" to="393494867"/>
    <trip id="350" depart="630.00" from="4730624" to="839709054"/>
    <trip id="351" depart="631.80" from="628782529#0" to="-524150333#1"/>
    <trip id="352" depart="633.60" from="96016135" to="13430690#0"/>
    <trip id="353" depart="635.40" from="606127853" to="393494867"/>
    <trip id="354" depart="637.20" from="14108346" to="-628755544#4"/>
    <trip id="355" depart="639.00" from="510702678#1" to="4730637#0"/>
    <trip id="356" depart="640.80" from="856293282" to="31448937#0"/>
    <trip id="357" depart="642.60" from="31411842" to="-524150338#1"/>
    <trip id="358" depart="644.40" from="-36786445#2" to="28575360"/>
    <trip id="359" depart="646.20" from="14858868" to="117055114#0"/>
    <trip id="360" depart="648.00" from="-4730648#1" to="856293285#1"/>
    <trip id="361" depart="649.80" from="628782529#0" to="393494867"/>
    <trip id="362" depart="651.60" from="879483837" to="E1"/>
    <trip id="363" depart="653.40" from="4730651" to="1196782590#0"/>
    <trip id="364" depart="655.20" from="-36786445#2" to="583307358"/>
    <trip id="365" depart="657.00" from="31411842" to="4726680"/>
    <trip id="366" depart="658.80" from="839709051" to="1053478472#3"/>
    <trip id="368" depart="662.40" from="31411842" to="-524150338#1"/>
    <trip id="369" depart="664.20" from="150276003#0" to="14118784#1"/>
    <trip id="370" depart="666.00" from="4730648#2" to="8152037#0"/>
    <trip id="371" depart="667.80" from="14858868" to="4730631#1"/>
    <trip id="372" depart="669.60" from="14108346" to="856293285#1"/>
    <trip id="373" depart="671.40" from="628782529#0" to="393494867"/>
    <trip id="375" depart="675.00" from="14858868" to="856293285#1"/>
    <trip id="376" depart="676.80" from="231945290#2" to="31519076"/>
    <trip id="377" depart="678.60" from="963479927#0" to="4726681#3"/>
    <trip id="378" depart="680.40" from="36786444#0" to="231945290#0"/>
    <trip id="379" depart="682.20" from="117055115" to="155433040"/>
    <trip id="380" depart="684.00" from="625259600" to="430855719"/>
    <trip id="381" depart="685.80" from="625259600" to="1111110395"/>
    <trip id="382" depart="687.60" from="36801004#0" to="839709054"/>
    <trip id="384" depart="691.20" from="-832487280" to="856293285#1"/>
    <trip id="385" depart="693.00" from="4690591#0" to="117055114#0"/>
    <trip id="386" depart="694.80" from="-96016135" to="393494867"/>
    <trip id="387" depart="696.60" from="633077911" to="-524150338#1"/>
    <trip id="388" depart="698.40" from="963479927#0" to="839709054"/>
    <trip id="390" depart="702.00" from="628782529#0" to="31448934#1"/>
    <trip id="391" depart="703.80" from="524150338#0" to="31512978#0"/>
    <trip id="392" depart="705.60" from="13654453" to="720012594#0"/>
    <trip id="393" depart="707.40" from="963479927#0" to="117055114#0"/>
    <trip id="394" depart="709.20" from="36801004#2" to="181218814#0"/>
    <trip id="395" depart="711.00" from="839709051" to="31512978#0"/>
    <trip id="396" depart="712.80" from="8152060#0" to="8152060#1"/>
    <trip id="397" depart="714.60" from="137238867#2" to="625259599"/>
    <trip id="398" depart="716.40" from="258274084" to="856293281"/>
    <trip id="399" depart="718.20" from="31427257#0" to="628782529#3"/>
    <trip id="400" depart="720.00" from="13853659#0" to="1196782590#0"/>
    <trip id="401" depart="721.80" from="410939627" to="E1"/>
    <trip id="402" depart="723.60" from="31411842" to="1041085657"/>
    <trip id="403" depart="725.40" from="33301560" to="31412878"/>
    <trip id="404" depart="727.20" from="37535329#0" to="393494867"/>
    <trip id="406" depart="730.80" from="1188284582#2" to="4730634"/>
    <trip id="407" depart="732.60" from="-628755544#4" to="117055114#0"/>
    <trip id="408" depart="734.40" from="625259600" to="36786444#0"/>
    <trip id="409" depart="736.20" from="583307357#2" to="13853655#1"/>
    <trip id="410" depart="738.00" from="628782529#0" to="181218814#2"/>
    <trip id="411" depart="739.80" from="4730644" to="628782529#5"/>
    <trip id="412" depart="741.60" from="963479927#0" to="31445160#1"/>
    <trip id="413" depart="743.40" from="-34065519" to="31449007"/>
    <trip id="415" depart="747.00" from="8152037#0" to="30239233#0"/>
    <trip id="416" depart="748.80" from="31449245" to="30239233#0"/>
    <trip id="417" depart="750.60" from="524150338#0" to="23179512#0"/>
    <trip id="418" depart="752.40" from="4730634" to="1053478472#3"/>
    <trip id="419" depart="754.20" from="31411842" to="856293285#1"/>
    <trip id="420" depart="756.00" from="14858868" to="4730631#0"/>
    <trip id="421" depart="757.80" from="4730631#0" to="781742860#4"/>
    <trip id="422" depart="759.60" from="70724347#1" to="28275167"/>
    <trip id="423" depart="761.40" from="181218814#2" to="13853655#1"/>
    <trip id="424" depart="763.20" from="524150338#0" to="606127853"/>
    <trip id="425" depart="765.00" from="8152036#0" to="-31445160#1"/>
    <trip id="426" depart="766.80" from="-4726710#1" to="4422176"/>
    <trip id="427" depart="768.60" from="839709051" to="96016144"/>
    <trip id="428" depart="770.40" from="591680761#0" to="29000804.26"/>
    <trip id="430" depart="774.00" from="8152036#0" to="30239233#0"/>