<?xml version="1.0" encoding="UTF-8"?>

<!-- generated on 2024-02-19 16:33:34 by Eclipse SUMO netedit Version 1.19.0
<configuration xmlns:xsi="http://www.w3.org/2001/XMLSchema-instance" xsi:noNamespaceSchemaLocation="http://sumo.dlr.de/xsd/neteditConfiguration.xsd">

    <input>
        <sumocfg-file value="osm2.sumocfg"/>
        <additional-files value="osm.poly.close.xml"/>
        <route-files value="osm_pt.rou.xml,osm.passenger.trips.xml"/>
        <sumo-net-file value="osm.net.xml.gz"/>
    </input>

    <output>
        <output-file value="osm.net.xml.gz"/>
        <output.street-names value="true"/>
    </output>

    <processing>
        <geometry.min-radius.fix.railways value="false"/>
        <geometry.max-grade.fix value="false"/>
        <offset.disable-normalization value="true"/>
        <lefthand value="0"/>
    </processing>

    <junctions>
        <no-turnarounds value="true"/>
        <junctions.corner-detail value="5"/>
        <junctions.limit-turn-speed value="5.50"/>
        <rectangular-lane-cut value="0"/>
    </junctions>

    <pedestrian>
        <walkingareas value="0"/>
    </pedestrian>

    <netedit>
        <ignore.routeelements value="false"/>
    </netedit>

</configuration>
-->

<net version="1.16" junctionCornerDetail="5" limitTurnSpeed="5.50" xmlns:xsi="http://www.w3.org/2001/XMLSchema-instance" xsi:noNamespaceSchemaLocation="http://sumo.dlr.de/xsd/net_file.xsd">

    <location netOffset="-594686.05,-5629939.39" convBoundary="561.89,1548.51,2438.04,3097.72" origBoundary="4.323407,50.813392,4.398395,50.847667" projParameter="+proj=utm +zone=31 +ellps=WGS84 +datum=WGS84 +units=m +no_defs"/>

    <type id="highway.living_street" priority="2" numLanes="1" speed="2.78" disallow="tram rail_urban rail rail_electric rail_fast ship" oneway="0"/>
    <type id="highway.primary" priority="12" numLanes="2" speed="27.78" disallow="tram rail_urban rail rail_electric rail_fast ship" oneway="0"/>
    <type id="highway.primary_link" priority="7" numLanes="1" speed="22.22" disallow="tram rail_urban rail rail_electric rail_fast ship" oneway="0"/>
    <type id="highway.residential" priority="3" numLanes="1" speed="13.89" disallow="tram rail_urban rail rail_electric rail_fast ship" oneway="0"/>
    <type id="highway.secondary" priority="11" numLanes="1" speed="27.78" disallow="tram rail_urban rail rail_electric rail_fast ship" oneway="0"/>
    <type id="highway.secondary_link" priority="6" numLanes="1" speed="22.22" disallow="tram rail_urban rail rail_electric rail_fast ship" oneway="0"/>
    <type id="highway.service" priority="1" numLanes="1" speed="5.56" allow="pedestrian delivery bicycle" oneway="0"/>
    <type id="highway.tertiary" priority="10" numLanes="1" speed="22.22" disallow="tram rail_urban rail rail_electric rail_fast ship" oneway="0"/>
    <type id="highway.trunk" priority="13" numLanes="2" speed="27.78" disallow="pedestrian bicycle tram rail_urban rail rail_electric rail_fast ship" oneway="0"/>
    <type id="highway.trunk_link" priority="8" numLanes="1" speed="22.22" disallow="pedestrian bicycle tram rail_urban rail rail_electric rail_fast ship" oneway="0"/>
    <type id="railway.tram" priority="17" numLanes="1" speed="13.89" allow="tram" oneway="1"/>

    <edge id=":10166853676_0" function="internal">
        <lane id=":10166853676_0_0" index="0" disallow="tram rail_urban rail rail_electric rail_fast ship" speed="11.11" length="14.51" shape="1705.67,1791.53 1702.01,1791.35 1698.43,1791.47 1694.86,1791.77 1691.19,1792.13"/>
    </edge>
    <edge id=":10166853676_1" function="internal">
        <lane id=":10166853676_1_0" index="0" disallow="tram rail_urban rail rail_electric rail_fast ship" speed="11.11" length="15.52" shape="1705.67,1791.53 1702.09,1790.48 1698.81,1788.41 1695.78,1785.78 1692.98,1783.06"/>
    </edge>
    <edge id=":10166853676_2" function="internal">
        <lane id=":10166853676_2_0" index="0" disallow="tram rail_urban rail rail_electric rail_fast ship" speed="8.33" length="18.01" shape="1706.54,1783.70 1703.38,1787.07 1699.77,1789.60 1695.71,1791.28 1691.19,1792.13"/>
    </edge>
    <edge id=":10166853676_3" function="internal">
        <lane id=":10166853676_3_0" index="0" disallow="tram rail_urban rail rail_electric rail_fast ship" speed="8.11" length="15.82" shape="1706.54,1783.70 1703.62,1786.33 1700.39,1787.10 1696.84,1786.01 1692.98,1783.06"/>
    </edge>
    <edge id=":10166853676_4" function="internal">
        <lane id=":10166853676_4_0" index="0" disallow="tram rail_urban rail rail_electric rail_fast ship" speed="7.39" length="18.46" shape="1695.20,1780.76 1698.87,1785.25 1699.42,1788.64 1696.86,1790.93 1691.19,1792.13"/>
    </edge>
    <edge id=":10166853676_5" function="internal">
        <lane id=":10166853676_5_0" index="0" disallow="tram rail_urban rail rail_electric rail_fast ship" speed="5.51" length="9.55" shape="1690.91,1788.94 1693.84,1788.32 1695.16,1787.13 1694.88,1785.38 1692.98,1783.06"/>
    </edge>
    <edge id=":10166853676_6" function="internal">
        <lane id=":10166853676_6_0" index="0" disallow="tram rail_urban rail rail_electric rail_fast ship" speed="5.81" length="10.91" shape="1696.15,1797.35 1697.55,1794.74 1697.19,1793.00 1695.07,1792.13 1691.19,1792.13"/>
    </edge>
    <edge id=":10166853676_7" function="internal">
        <lane id=":10166853676_7_0" index="0" disallow="tram rail_urban rail rail_electric rail_fast ship" speed="8.33" length="16.18" shape="1696.15,1797.35 1697.79,1794.01 1697.80,1790.52 1696.20,1786.87 1692.98,1783.06"/>
    </edge>
    <edge id=":10773371483_0" function="internal">
        <lane id=":10773371483_0_0" index="0" disallow="tram rail_urban rail rail_electric rail_fast ship" speed="10.15" length="7.59" shape="1710.53,1797.55 1705.86,1791.55"/>
    </edge>
    <edge id=":10773371483_1" function="internal">
        <lane id=":10773371483_1_0" index="0" disallow="tram rail_urban rail rail_electric rail_fast ship" speed="6.90" length="12.27" shape="1710.53,1797.55 1709.13,1795.30 1709.36,1792.97 1711.20,1790.57 1714.66,1788.09"/>
    </edge>
    <edge id=":10925695754_0" function="internal">
        <lane id=":10925695754_0_0" index="0" disallow="pedestrian bicycle tram rail_urban rail rail_electric rail_fast ship" speed="13.89" length="23.53" shape="702.85,2482.26 696.70,2478.57 690.84,2475.91 685.61,2474.11 681.35,2473.04"/>
    </edge>
    <edge id=":10925695754_1" function="internal">
        <lane id=":10925695754_1_0" index="0" disallow="pedestrian bicycle tram rail_urban rail rail_electric rail_fast ship" speed="13.89" length="23.35" shape="702.85,2482.26 683.57,2469.07"/>
        <lane id=":10925695754_1_1" index="1" disallow="pedestrian bicycle tram rail_urban rail rail_electric rail_fast ship" speed="13.89" length="23.35" shape="704.66,2479.62 685.38,2466.43"/>
    </edge>
    <edge id=":1112453820_0" function="internal">
        <lane id=":1112453820_0_0" index="0" disallow="tram rail_urban rail rail_electric rail_fast ship" speed="6.95" length="10.14" shape="1564.19,2826.55 1564.28,2823.57 1564.67,2821.50 1565.00,2819.44 1564.87,2816.47"/>
    </edge>
    <edge id=":1112453820_1" function="internal">
        <lane id=":1112453820_1_0" index="0" disallow="tram rail_urban rail rail_electric rail_fast ship" speed="5.56" length="8.51" shape="1571.74,2819.64 1569.75,2820.97 1568.36,2822.53 1567.58,2824.34 1567.39,2826.39"/>
    </edge>
    <edge id=":1112453820_2" function="internal">
        <lane id=":1112453820_2_0" index="0" disallow="tram rail_urban rail rail_electric rail_fast ship" speed="6.00" length="9.58" shape="1571.74,2819.64 1569.04,2820.64 1567.00,2820.44 1565.61,2819.06 1564.87,2816.47"/>
    </edge>
    <edge id=":1112461207_0" function="internal">
        <lane id=":1112461207_0_0" index="0" disallow="tram rail_urban rail rail_electric rail_fast ship" speed="5.67" length="7.50" shape="1046.09,2088.55 1044.27,2086.80 1042.62,2085.98 1041.15,2086.08 1039.85,2087.11"/>
    </edge>
    <edge id=":1112461207_1" function="internal">
        <lane id=":1112461207_1_0" index="0" disallow="tram rail_urban rail rail_electric rail_fast ship" speed="7.44" length="9.79" shape="1047.05,2077.40 1046.07,2079.49 1045.97,2081.68 1046.74,2083.95 1048.39,2086.32"/>
    </edge>
    <edge id=":1112461207_2" function="internal">
        <lane id=":1112461207_2_0" index="0" disallow="tram rail_urban rail rail_electric rail_fast ship" speed="8.33" length="12.09" shape="1047.05,2077.40 1039.85,2087.11"/>
    </edge>
    <edge id=":1112461217_0" function="internal">
        <lane id=":1112461217_0_0" index="0" disallow="pedestrian bicycle tram rail_urban rail rail_electric rail_fast ship" speed="7.61" length="7.61" shape="1251.43,1769.36 1249.26,1769.36 1247.41,1769.78 1245.87,1770.64 1244.64,1771.92"/>
    </edge>
    <edge id=":1112461217_1" function="internal">
        <lane id=":1112461217_1_0" index="0" disallow="tram rail_urban rail rail_electric rail_fast ship" speed="8.33" length="7.60" shape="1251.43,1769.36 1248.97,1769.08 1247.30,1768.66 1245.76,1767.88 1243.69,1766.50"/>
        <lane id=":1112461217_1_1" index="1" disallow="tram rail_urban rail rail_electric rail_fast ship" speed="8.33" length="7.60" shape="1251.73,1766.17 1249.74,1765.95 1248.40,1765.61 1247.16,1764.97 1245.50,1763.86"/>
    </edge>
    <edge id=":1112461217_3" function="internal">
        <lane id=":1112461217_3_0" index="0" disallow="pedestrian bicycle tram rail_urban rail rail_electric rail_fast ship" speed="8.33" length="10.76" shape="1250.79,1763.09 1244.64,1771.92"/>
    </edge>
    <edge id=":1112461217_4" function="internal">
        <lane id=":1112461217_4_0" index="0" disallow="tram rail_urban rail rail_electric rail_fast ship" speed="5.47" length="6.10" shape="1250.79,1763.09 1249.70,1764.27 1248.45,1764.78 1247.05,1764.65 1245.50,1763.86"/>
    </edge>
    <edge id=":122524734_0" function="internal">
        <lane id=":122524734_0_0" index="0" disallow="tram rail_urban rail rail_electric rail_fast ship" speed="11.11" length="16.80" shape="1412.82,2964.98 1414.06,2968.37 1415.64,2971.64 1418.08,2975.04 1421.92,2978.80"/>
    </edge>
    <edge id=":122524734_1" function="internal">
        <lane id=":122524734_1_0" index="0" disallow="tram rail_urban rail rail_electric rail_fast ship" speed="13.89" length="11.42" shape="1413.22,2971.40 1421.92,2978.80"/>
        <lane id=":122524734_1_1" index="1" disallow="tram rail_urban rail rail_electric rail_fast ship" speed="13.89" length="11.42" shape="1411.14,2973.84 1419.84,2981.23"/>
    </edge>
    <edge id=":124581067_0" function="internal">
        <lane id=":124581067_0_0" index="0" disallow="pedestrian bicycle tram rail_urban rail rail_electric rail_fast ship" speed="13.89" length="0.37" shape="712.22,2524.34 712.30,2524.27 712.36,2524.22 712.40,2524.16 712.46,2524.07"/>
    </edge>
    <edge id=":1257757476_0" function="internal">
        <lane id=":1257757476_0_0" index="0" disallow="tram rail_urban rail rail_electric rail_fast ship" speed="13.89" length="7.24" shape="682.21,2445.04 684.34,2445.14 685.84,2444.89 687.31,2444.71 689.38,2445.08"/>
    </edge>
    <edge id=":1271954976_0" function="internal">
        <lane id=":1271954976_0_0" index="0" disallow="tram rail_urban rail rail_electric rail_fast ship" speed="6.95" length="0.28" shape="1593.55,2246.16 1593.60,2246.22 1593.64,2246.27 1593.68,2246.31 1593.75,2246.36"/>
    </edge>
    <edge id=":129939645_0" function="internal">
        <lane id=":129939645_0_0" index="0" disallow="tram rail_urban rail rail_electric rail_fast ship" speed="8.33" length="11.18" shape="1437.59,2503.74 1444.74,2512.34"/>
    </edge>
    <edge id=":129939645_1" function="internal">
        <lane id=":129939645_1_0" index="0" disallow="tram rail_urban rail rail_electric rail_fast ship" speed="6.36" length="9.04" shape="1437.59,2503.74 1438.88,2505.88 1439.14,2507.89 1438.36,2509.75 1436.54,2511.47"/>
    </edge>
    <edge id=":129939677_0" function="internal">
        <lane id=":129939677_0_0" index="0" disallow="tram rail_urban rail rail_electric rail_fast ship" speed="7.22" length="9.91" shape="1768.99,2401.54 1766.93,2400.23 1764.74,2399.87 1762.44,2400.45 1760.00,2401.98"/>
    </edge>
    <edge id=":129939677_1" function="internal">
        <lane id=":129939677_1_0" index="0" disallow="tram rail_urban rail rail_electric rail_fast ship" speed="8.33" length="14.47" shape="1768.99,2401.54 1758.24,2391.86"/>
    </edge>
    <edge id=":129939677_2" function="internal">
        <lane id=":129939677_2_0" index="0" disallow="tram rail_urban rail rail_electric rail_fast ship" speed="6.19" length="9.05" shape="1758.00,2399.48 1759.73,2397.63 1760.35,2395.74 1759.85,2393.82 1758.24,2391.86"/>
    </edge>
    <edge id=":129939682_0" function="internal">
        <lane id=":129939682_0_0" index="0" disallow="tram rail_urban rail rail_electric rail_fast ship" speed="8.33" length="9.84" shape="1642.75,2496.67 1641.31,2486.94"/>
    </edge>
    <edge id=":129939682_1" function="internal">
        <lane id=":129939682_1_0" index="0" disallow="tram rail_urban rail rail_electric rail_fast ship" speed="7.34" length="8.69" shape="1642.75,2496.67 1642.55,2493.96 1642.89,2491.75 1643.77,2490.07 1645.18,2488.89"/>
    </edge>
    <edge id=":129939682_2" function="internal">
        <lane id=":129939682_2_0" index="0" disallow="tram rail_urban rail rail_electric rail_fast ship" speed="5.82" length="8.93" shape="1646.71,2491.70 1644.73,2492.30 1643.16,2491.71 1642.02,2489.92 1641.31,2486.94"/>
    </edge>
    <edge id=":129939682_3" function="internal">
        <lane id=":129939682_3_0" index="0" disallow="tram rail_urban rail rail_electric rail_fast ship" speed="3.65" length="4.67" shape="1646.71,2491.70 1645.27,2491.57 1644.54,2491.06 1644.51,2490.17 1645.18,2488.89"/>
    </edge>
    <edge id=":1318665562_0" function="internal">
        <lane id=":1318665562_0_0" index="0" disallow="tram rail_urban rail rail_electric rail_fast ship" speed="8.33" length="15.26" shape="1153.21,1921.85 1144.40,1934.31"/>
    </edge>
    <edge id=":1318665562_1" function="internal">
        <lane id=":1318665562_1_0" index="0" disallow="pedestrian bicycle tram rail_urban rail rail_electric rail_fast ship" speed="8.33" length="15.26" shape="1153.21,1921.85 1150.82,1924.73 1147.93,1927.24 1144.83,1929.56 1141.80,1931.87"/>
    </edge>
    <edge id=":1318665570_0" function="internal">
        <lane id=":1318665570_0_0" index="0" disallow="tram rail_urban rail rail_electric rail_fast ship" speed="8.33" length="22.18" shape="1113.61,1904.59 1126.11,1886.27"/>
    </edge>
    <edge id=":1318665570_1" function="internal">
        <lane id=":1318665570_1_0" index="0" disallow="pedestrian bicycle tram rail_urban rail rail_electric rail_fast ship" speed="8.33" length="20.46" shape="1117.32,1904.72 1119.17,1900.50 1121.43,1895.33 1123.82,1890.25 1126.11,1886.27"/>
    </edge>
    <edge id=":134472382_0" function="internal">
        <lane id=":134472382_0_0" index="0" disallow="tram rail_urban rail rail_electric rail_fast ship" speed="13.89" length="30.56" shape="1103.54,2731.84 1128.37,2749.60"/>
        <lane id=":134472382_0_1" index="1" disallow="tram rail_urban rail rail_electric rail_fast ship" speed="13.89" length="30.56" shape="1101.70,2734.46 1126.59,2752.26"/>
    </edge>
    <edge id=":134472382_2" function="internal">
        <lane id=":134472382_2_0" index="0" disallow="tram rail_urban rail rail_electric rail_fast ship" speed="13.89" length="23.30" shape="1106.21,2741.01 1110.09,2742.98 1114.94,2745.43 1120.52,2748.49 1126.59,2752.26"/>
    </edge>
    <edge id=":134618933_0" function="internal">
        <lane id=":134618933_0_0" index="0" disallow="tram rail_urban rail rail_electric rail_fast ship" speed="8.33" length="8.15" shape="1892.06,1997.76 1890.23,1996.21 1888.79,1995.33 1887.17,1994.89 1884.79,1994.67"/>
    </edge>
    <edge id=":134618933_1" function="internal">
        <lane id=":134618933_1_0" index="0" disallow="tram rail_urban rail rail_electric rail_fast ship" speed="6.01" length="7.24" shape="1892.40,1989.13 1891.70,1990.55 1891.76,1992.07 1892.59,1993.67 1894.19,1995.37"/>
    </edge>
    <edge id=":134618933_2" function="internal">
        <lane id=":134618933_2_0" index="0" disallow="tram rail_urban rail rail_electric rail_fast ship" speed="8.33" length="9.70" shape="1892.40,1989.13 1890.23,1991.63 1888.24,1993.39 1886.42,1994.40 1884.79,1994.67"/>
    </edge>
    <edge id=":134618940_0" function="internal">
        <lane id=":134618940_0_0" index="0" disallow="tram rail_urban rail rail_electric rail_fast ship" speed="8.12" length="8.62" shape="1884.59,1994.66 1881.94,1994.29 1879.82,1993.58 1878.22,1992.51 1877.14,1991.09"/>
    </edge>
    <edge id=":134618940_1" function="internal">
        <lane id=":134618940_1_0" index="0" disallow="tram rail_urban rail rail_electric rail_fast ship" speed="7.78" length="8.38" shape="1878.32,1999.05 1878.87,1997.66 1878.86,1995.87 1878.28,1993.68 1877.14,1991.09"/>
    </edge>
    <edge id=":134618945_0" function="internal">
        <lane id=":134618945_0_0" index="0" disallow="tram rail_urban rail rail_electric rail_fast ship" speed="8.04" length="6.14" shape="1876.54,1989.91 1875.90,1988.37 1875.60,1986.86 1875.62,1985.40 1875.97,1983.97"/>
    </edge>
    <edge id=":134618945_1" function="internal">
        <lane id=":134618945_1_0" index="0" disallow="tram rail_urban rail rail_electric rail_fast ship" speed="6.73" length="5.91" shape="1871.48,1987.37 1873.06,1986.94 1874.33,1986.23 1875.30,1985.24 1875.97,1983.97"/>
    </edge>
    <edge id=":134618949_0" function="internal">
        <lane id=":134618949_0_0" index="0" disallow="tram rail_urban rail rail_electric rail_fast ship" speed="7.37" length="6.79" shape="1877.58,1974.78 1879.18,1976.39 1880.65,1977.48 1882.00,1978.05 1883.22,1978.12"/>
    </edge>
    <edge id=":134618949_1" function="internal">
        <lane id=":134618949_1_0" index="0" disallow="tram rail_urban rail rail_electric rail_fast ship" speed="7.30" length="7.22" shape="1876.06,1983.72 1876.57,1981.74 1876.59,1979.95 1876.14,1978.34 1875.19,1976.91"/>
    </edge>
    <edge id=":134618949_2" function="internal">
        <lane id=":134618949_2_0" index="0" disallow="tram rail_urban rail rail_electric rail_fast ship" speed="8.33" length="9.56" shape="1876.06,1983.72 1877.14,1981.61 1878.70,1979.98 1880.73,1978.81 1883.22,1978.12"/>
    </edge>
    <edge id=":134618956_0" function="internal">
        <lane id=":134618956_0_0" index="0" disallow="tram rail_urban rail rail_electric rail_fast ship" speed="6.85" length="4.91" shape="1883.42,1978.08 1884.12,1977.78 1884.88,1977.08 1885.72,1975.98 1886.62,1974.50"/>
    </edge>
    <edge id=":134618956_1" function="internal">
        <lane id=":134618956_1_0" index="0" disallow="tram rail_urban rail rail_electric rail_fast ship" speed="6.93" length="5.11" shape="1883.42,1978.08 1884.72,1978.00 1885.93,1978.22 1887.08,1978.72 1888.14,1979.52"/>
    </edge>
    <edge id=":134618959_0" function="internal">
        <lane id=":134618959_0_0" index="0" disallow="tram rail_urban rail rail_electric rail_fast ship" speed="8.07" length="9.33" shape="1889.50,1980.76 1891.71,1982.45 1893.85,1983.44 1895.94,1983.73 1897.97,1983.31"/>
    </edge>
    <edge id=":134618959_1" function="internal">
        <lane id=":134618959_1_0" index="0" disallow="tram rail_urban rail rail_electric rail_fast ship" speed="6.87" length="9.62" shape="1889.50,1980.76 1891.76,1983.16 1893.01,1985.33 1893.27,1987.27 1892.52,1988.97"/>
    </edge>
    <edge id=":1388362148_0" function="internal">
        <lane id=":1388362148_0_0" index="0" disallow="pedestrian bicycle tram rail_urban rail rail_electric rail_fast ship" speed="13.89" length="0.32" shape="1414.95,2987.43 1415.05,2987.53 1415.13,2987.59 1415.19,2987.67 1415.29,2987.77"/>
        <lane id=":1388362148_0_1" index="1" disallow="pedestrian bicycle tram rail_urban rail rail_electric rail_fast ship" speed="13.89" length="0.32" shape="1412.81,2989.81 1412.85,2989.85 1412.87,2989.87 1412.89,2989.89 1412.93,2989.93"/>
    </edge>
    <edge id=":1388362151_0" function="internal">
        <lane id=":1388362151_0_0" index="0" disallow="tram rail_urban rail rail_electric rail_fast ship" speed="13.89" length="20.17" shape="1320.61,2929.74 1305.47,2916.44"/>
        <lane id=":1388362151_0_1" index="1" disallow="tram rail_urban rail rail_electric rail_fast ship" speed="13.89" length="20.17" shape="1322.71,2927.33 1307.54,2914.00"/>
    </edge>
    <edge id=":1388362151_2" function="internal">
        <lane id=":1388362151_2_0" index="0" disallow="tram rail_urban rail rail_electric rail_fast ship" speed="13.89" length="13.23" shape="1318.85,2920.76 1315.91,2919.36 1313.41,2918.14 1310.80,2916.54 1307.54,2914.00"/>
    </edge>
    <edge id=":1388362153_0" function="internal">
        <lane id=":1388362153_0_0" index="0" disallow="tram rail_urban rail rail_electric rail_fast ship" speed="13.89" length="37.51" shape="1347.21,2945.52 1342.15,2940.31 1333.66,2932.54 1324.89,2925.09 1319.03,2920.84"/>
    </edge>
    <edge id=":1388362153_1" function="internal">
        <lane id=":1388362153_1_0" index="0" disallow="pedestrian bicycle tram rail_urban rail rail_electric rail_fast ship" speed="13.89" length="44.79" shape="1347.21,2945.52 1341.98,2939.89 1332.88,2930.86 1322.92,2921.36 1315.13,2914.29"/>
    </edge>
    <edge id=":1388362153_2" function="internal">
        <lane id=":1388362153_2_0" index="0" disallow="pedestrian bicycle tram rail_urban rail rail_electric rail_fast ship" speed="13.89" length="45.69" shape="1354.91,2949.09 1346.78,2942.19 1335.85,2933.31 1325.48,2925.27 1319.03,2920.84"/>
    </edge>
    <edge id=":1388362153_3" function="internal">
        <lane id=":1388362153_3_0" index="0" disallow="pedestrian bicycle tram rail_urban rail rail_electric rail_fast ship" speed="13.89" length="52.88" shape="1354.91,2949.09 1315.13,2914.29"/>
        <lane id=":1388362153_3_1" index="1" disallow="pedestrian bicycle tram rail_urban rail rail_electric rail_fast ship" speed="13.89" length="52.88" shape="1357.04,2946.70 1317.22,2911.86"/>
    </edge>
    <edge id=":1388362154_0" function="internal">
        <lane id=":1388362154_0_0" index="0" disallow="tram rail_urban rail rail_electric rail_fast ship" speed="13.89" length="23.92" shape="1355.53,2960.24 1337.52,2944.55"/>
        <lane id=":1388362154_0_1" index="1" disallow="tram rail_urban rail rail_electric rail_fast ship" speed="13.89" length="23.92" shape="1357.67,2957.87 1339.62,2942.14"/>
    </edge>
    <edge id=":1388362154_2" function="internal">
        <lane id=":1388362154_2_0" index="0" disallow="tram rail_urban rail rail_electric rail_fast ship" speed="13.89" length="16.02" shape="1357.67,2957.87 1353.98,2954.26 1351.42,2951.25 1349.40,2948.50 1347.33,2945.68"/>
    </edge>
    <edge id=":144233050_0" function="internal" bidi=":144233050_3">
        <lane id=":144233050_0_0" index="0" allow="tram" speed="13.89" length="2.89" shape="873.65,2292.43 872.02,2294.82"/>
    </edge>
    <edge id=":144233050_1" function="internal" bidi=":144233050_2">
        <lane id=":144233050_1_0" index="0" allow="tram" speed="13.89" length="2.88" shape="873.56,2292.38 872.02,2294.82"/>
    </edge>
    <edge id=":144233050_2" function="internal" bidi=":144233050_1">
        <lane id=":144233050_2_0" index="0" allow="tram" speed="13.89" length="2.88" shape="872.02,2294.82 873.56,2292.38"/>
    </edge>
    <edge id=":144233050_3" function="internal" bidi=":144233050_0">
        <lane id=":144233050_3_0" index="0" allow="tram" speed="13.89" length="2.89" shape="872.02,2294.82 873.65,2292.43"/>
    </edge>
    <edge id=":145349_0" function="internal">
        <lane id=":145349_0_0" index="0" disallow="tram rail_urban rail rail_electric rail_fast ship" speed="6.35" length="9.04" shape="1229.76,1818.19 1227.60,1816.92 1225.60,1816.70 1223.75,1817.50 1222.06,1819.35"/>
    </edge>
    <edge id=":145349_1" function="internal">
        <lane id=":145349_1_0" index="0" disallow="tram rail_urban rail rail_electric rail_fast ship" speed="8.33" length="11.22" shape="1228.43,1810.11 1222.06,1819.35"/>
    </edge>
    <edge id=":146769201_0" function="internal">
        <lane id=":146769201_0_0" index="0" disallow="tram rail_urban rail rail_electric rail_fast ship" speed="6.51" length="9.01" shape="1366.13,2902.03 1364.84,2904.13 1364.53,2906.15 1365.21,2908.07 1366.87,2909.90"/>
    </edge>
    <edge id=":1494165088_0" function="internal">
        <lane id=":1494165088_0_0" index="0" disallow="tram rail_urban rail rail_electric rail_fast ship" speed="5.84" length="9.16" shape="2221.32,1808.51 2219.22,1807.14 2217.39,1807.07 2215.83,1808.30 2214.54,1810.83"/>
    </edge>
    <edge id=":1494165088_1" function="internal">
        <lane id=":1494165088_1_0" index="0" disallow="tram rail_urban rail rail_electric rail_fast ship" speed="8.33" length="18.50" shape="2221.32,1808.51 2207.69,1795.99"/>
    </edge>
    <edge id=":1494165088_2" function="internal">
        <lane id=":1494165088_2_0" index="0" disallow="tram rail_urban rail rail_electric rail_fast ship" speed="3.65" length="4.67" shape="2221.32,1808.51 2220.97,1807.11 2221.21,1806.25 2222.04,1805.92 2223.47,1806.13"/>
    </edge>
    <edge id=":1494165088_3" function="internal">
        <lane id=":1494165088_3_0" index="0" disallow="tram rail_urban rail rail_electric rail_fast ship" speed="8.33" length="17.28" shape="2216.27,1791.28 2216.10,1794.77 2217.24,1798.42 2219.69,1802.20 2223.47,1806.13"/>
    </edge>
    <edge id=":1494165088_4" function="internal">
        <lane id=":1494165088_4_0" index="0" disallow="tram rail_urban rail rail_electric rail_fast ship" speed="8.33" length="19.67" shape="2216.27,1791.28 2215.74,1795.72 2215.61,1801.12 2215.37,1806.48 2214.54,1810.83"/>
    </edge>
    <edge id=":1494165088_5" function="internal">
        <lane id=":1494165088_5_0" index="0" disallow="tram rail_urban rail rail_electric rail_fast ship" speed="6.62" length="13.07" shape="2216.27,1791.28 2214.79,1795.46 2212.87,1797.64 2210.50,1797.82 2207.69,1795.99"/>
    </edge>
    <edge id=":1494165088_6" function="internal">
        <lane id=":1494165088_6_0" index="0" disallow="tram rail_urban rail rail_electric rail_fast ship" speed="8.33" length="18.45" shape="2209.87,1793.65 2223.47,1806.13"/>
    </edge>
    <edge id=":1494165088_7" function="internal">
        <lane id=":1494165088_7_0" index="0" disallow="tram rail_urban rail rail_electric rail_fast ship" speed="8.33" length="18.96" shape="2209.87,1793.65 2213.22,1797.58 2215.12,1801.75 2215.56,1806.17 2214.54,1810.83"/>
    </edge>
    <edge id=":1494165088_8" function="internal">
        <lane id=":1494165088_8_0" index="0" disallow="tram rail_urban rail rail_electric rail_fast ship" speed="3.65" length="4.67" shape="2209.87,1793.65 2210.21,1795.06 2209.95,1795.91 2209.12,1796.23 2207.69,1795.99"/>
    </edge>
    <edge id=":1505400616_0" function="internal">
        <lane id=":1505400616_0_0" index="0" disallow="tram rail_urban rail rail_electric rail_fast ship" speed="8.33" length="10.87" shape="1250.41,1753.63 1252.85,1755.62 1254.08,1757.51 1254.75,1759.74 1255.51,1762.79"/>
    </edge>
    <edge id=":1505400616_1" function="internal">
        <lane id=":1505400616_1_0" index="0" disallow="tram rail_urban rail rail_electric rail_fast ship" speed="6.15" length="7.96" shape="1248.63,1756.29 1250.51,1757.87 1251.52,1759.51 1251.65,1761.19 1250.90,1762.93"/>
    </edge>
    <edge id=":1505400788_0" function="internal">
        <lane id=":1505400788_0_0" index="0" disallow="pedestrian bicycle tram rail_urban rail rail_electric rail_fast ship" speed="8.33" length="12.36" shape="1141.72,1931.94 1132.25,1939.88"/>
    </edge>
    <edge id=":1505400788_1" function="internal">
        <lane id=":1505400788_1_0" index="0" disallow="pedestrian bicycle tram rail_urban rail rail_electric rail_fast ship" speed="8.33" length="12.46" shape="1139.02,1929.48 1137.37,1932.42 1136.01,1934.98 1134.45,1937.39 1132.25,1939.88"/>
    </edge>
    <edge id=":1590845697_0" function="internal">
        <lane id=":1590845697_0_0" index="0" disallow="tram rail_urban rail rail_electric rail_fast ship" speed="13.89" length="56.37" shape="1273.55,2889.37 1227.55,2856.79"/>
        <lane id=":1590845697_0_1" index="1" disallow="tram rail_urban rail rail_electric rail_fast ship" speed="13.89" length="56.95" shape="1275.62,2886.93 1229.16,2854.00"/>
    </edge>
    <edge id=":1590845697_2" function="internal">
        <lane id=":1590845697_2_0" index="0" disallow="tram rail_urban rail rail_electric rail_fast ship" speed="13.89" length="57.00" shape="1275.62,2886.93 1256.77,2870.76 1243.53,2858.93 1235.89,2851.46 1233.86,2848.34"/>
    </edge>
    <edge id=":1705552242_0" function="internal">
        <lane id=":1705552242_0_0" index="0" disallow="tram rail_urban rail rail_electric rail_fast ship" speed="6.95" length="10.04" shape="1367.74,2399.70 1364.29,2390.27"/>
    </edge>
    <edge id=":1705552242_1" function="internal">
        <lane id=":1705552242_1_0" index="0" disallow="tram rail_urban rail rail_electric rail_fast ship" speed="8.33" length="10.25" shape="1363.35,2400.04 1364.63,2397.31 1365.22,2395.25 1365.10,2393.14 1364.29,2390.27"/>
    </edge>
    <edge id=":1705552266_0" function="internal">
        <lane id=":1705552266_0_0" index="0" allow="private emergency authority army vip pedestrian passenger hov taxi delivery motorcycle moped bicycle evehicle custom1 custom2" speed="8.33" length="10.01" shape="1346.00,2402.81 1348.43,2404.37 1350.36,2404.97 1352.47,2405.11 1355.45,2405.33"/>
    </edge>
    <edge id=":1705552266_1" function="internal">
        <lane id=":1705552266_1_0" index="0" allow="private emergency authority army vip pedestrian passenger hov taxi delivery motorcycle moped bicycle evehicle custom1 custom2" speed="6.95" length="9.94" shape="1346.00,2402.81 1353.84,2408.91"/>
    </edge>